LAMMPS (28 Jun 2014)
# Input file for uniaxial tensile loading of single crystal aluminum
# Mark Tschopp, November 2010

# ------------------------ INITIALIZATION ----------------------------
units 		metal
dimension	3
boundary	p	p	p
atom_style	atomic
variable latparam equal 4.05

# ----------------------- ATOM DEFINITION ----------------------------
lattice		fcc 4.05
Lattice spacing in x,y,z = 4.05 4.05 4.05
region		whole block 0 10 0 10 0 10
create_box	1 whole
Created orthogonal box = (0 0 0) to (40.5 40.5 40.5)
lattice 	fcc 4.05 orient x 1 0 0 orient y 0 1 0 orient z 0 0 1
Lattice spacing in x,y,z = 4.05 4.05 4.05
create_atoms	1 region whole
Created 4000 atoms

# ------------------------ FORCE FIELDS ------------------------------
pair_style	eam/alloy
pair_coeff	* * Al99.eam.alloy Al

# ------------------------- SETTINGS ---------------------------------
compute csym all centro/atom fcc
compute peratom all pe/atom

######################################
# EQUILIBRATION
reset_timestep	0
timestep 0.001
velocity all create 300 12345 mom yes rot no
fix 1 all npt temp 300 300 1 iso 0 0 1 drag 1

# Set thermo output
thermo 1000
thermo_style custom step lx ly lz press pxx pyy pzz pe temp

# Run for at least 10 picosecond (assuming 1 fs timestep)
run 20000
Step Lx Ly Lz Press Pxx Pyy Pzz PotEng Temp
0         40.5         40.5         40.5    2496.1233    2446.9902    2534.6541    2506.7256       -13440          300
Averages over the last 11 of 21 rows, steps 10000 to 20000:
Lx Ly Lz Press Pxx Pyy Pzz PotEng Temp
40.6401 40.6401 40.6401 49.3439 28.6387 3.51948 115.873 -13293.5 283.279
Loop time of 266.044 on 4 procs for 20000 steps with 4000 atoms

Pair  time (%) = 218.538 (82.1434)
Neigh time (%) = 0 (0)
Comm  time (%) = 35.5021 (13.3444)
Outpt time (%) = 0.0030762 (0.00115627)
Other time (%) = 12.0013 (4.51102)

unfix 1

# Store final cell length for strain calculations
variable tmp equal "lx"
variable L0 equal 40.6483922577475
Initial Length, L0: 40.6483922577475

######################################
# DEFORMATION
reset_timestep	0

fix		1 all npt temp 300 300 1 y 0 0 1 z 0 0 1 drag 1
variable srate equal 1.0e10
variable srate1 equal "v_srate / 1.0e12"
fix		2 all deform 1 x erate 0.01 units box remap x

# Output strain and stress info to file
# for units metal, pressure is in [bars] = 100 [kPa] = 1/10000 [GPa]
# p2, p3, p4 are in GPa
variable strain equal "(lx - v_L0)/v_L0"
variable p1 equal "v_strain"
variable p2 equal "-pxx/10000"
variable p3 equal "-pyy/10000"
variable p4 equal "-pzz/10000"

# Use cfg for AtomEye
#dump 		1 all cfg 250 dump.tensile_*.cfg id type xs ys zs c_csym c_peratom fx fy fz
#dump_modify 1 element Al

# Display thermo
thermo 	1000
thermo_style	custom step v_strain temp v_p2 v_p3 v_p4 ke pe press

run		20000
Step strain Temp p2 p3 p4 KinEng PotEng Press
0            0    295.05319  -0.02368314 -0.029812899 -0.0083852874    152.51633   -13283.071    206.27109
Averages over the last 11 of 21 rows, steps 10000 to 20000:
strain Temp p2 p3 p4 KinEng PotEng Press
0.15 340.804 4.64298 -0.00508844 0.00846323 176.165 -13059.2 -15487.8
Loop time of 347.114 on 4 procs for 20000 steps with 4000 atoms

Pair  time (%) = 277.503 (79.9456)
Neigh time (%) = 0.515909 (0.148628)
Comm  time (%) = 49.2141 (14.1781)
Outpt time (%) = 0.00721586 (0.00207881)
Other time (%) = 19.8742 (5.72556)

######################################
# SIMULATION DONE
print "All done"
All done
