LAMMPS (28 Jun 2014)
# Input file for uniaxial tensile loading of single crystal aluminum
# Mark Tschopp, November 2010

# ------------------------ INITIALIZATION ----------------------------
units 		metal
dimension	3
boundary	p	p	p
atom_style	atomic
variable latparam equal 4.05

# ----------------------- ATOM DEFINITION ----------------------------
lattice		fcc 4.05
Lattice spacing in x,y,z = 4.05 4.05 4.05
region		whole block 0 14 0 14 0 14
create_box	1 whole
Created orthogonal box = (0 0 0) to (56.7 56.7 56.7)
lattice 	fcc 4.05 orient x 1 0 0 orient y 0 1 0 orient z 0 0 1
Lattice spacing in x,y,z = 4.05 4.05 4.05
create_atoms	1 region whole
Created 10976 atoms

# ------------------------ FORCE FIELDS ------------------------------
pair_style	eam/alloy
pair_coeff	* * Al99.eam.alloy Al

# ------------------------- SETTINGS ---------------------------------
compute csym all centro/atom fcc
compute peratom all pe/atom

######################################
# EQUILIBRATION
reset_timestep	0
timestep 0.001
velocity all create 300 12345 mom yes rot no
fix 1 all npt temp 300 300 1 iso 0 0 1 drag 1

# Set thermo output
thermo 1000
thermo_style custom step lx ly lz press pxx pyy pzz pe temp

# Run for at least 10 picosecond (assuming 1 fs timestep)
run 20000
Step Lx Ly Lz Press Pxx Pyy Pzz PotEng Temp
0         56.7         56.7         56.7    2496.5196    2454.4963    2519.8171    2515.2453    -36879.36          300
Averages over the last 11 of 21 rows, steps 10000 to 20000:
Lx Ly Lz Press Pxx Pyy Pzz PotEng Temp
56.8883 56.8883 56.8883 -69.3276 -93.867 -57.944 -56.1719 -36495.5 273.036
Loop time of 532.67 on 4 procs for 20000 steps with 10976 atoms

Pair  time (%) = 481.304 (90.3568)
Neigh time (%) = 0 (0)
Comm  time (%) = 34.4731 (6.47176)
Outpt time (%) = 0.00365859 (0.00068684)
Other time (%) = 16.8898 (3.17078)

unfix 1

# Store final cell length for strain calculations
variable tmp equal "lx"
variable L0 equal 56.9072358451624
Initial Length, L0: 56.9072358451624

######################################
# DEFORMATION
reset_timestep	0

fix		1 all npt temp 300 300 1 y 0 0 1 z 0 0 1 drag 1
variable srate equal 1.0e10
variable srate1 equal "v_srate / 1.0e12"
fix		2 all deform 1 x erate 0.01 units box remap x

# Output strain and stress info to file
# for units metal, pressure is in [bars] = 100 [kPa] = 1/10000 [GPa]
# p2, p3, p4 are in GPa
variable strain equal "(lx - v_L0)/v_L0"
variable p1 equal "v_strain"
variable p2 equal "-pxx/10000"
variable p3 equal "-pyy/10000"
variable p4 equal "-pzz/10000"

# Use cfg for AtomEye
#dump 		1 all cfg 250 dump.tensile_*.cfg id type xs ys zs c_csym c_peratom fx fy fz
#dump_modify 1 element Al

# Display thermo
thermo 	1000
thermo_style	custom step v_strain temp v_p2 v_p3 v_p4 ke pe press

run		20000
Step strain Temp p2 p3 p4 KinEng PotEng Press
0 1.2485982e-16    295.46089  0.011386783  0.022005685  0.013580132    419.14972   -36465.179   -156.57533
Averages over the last 11 of 21 rows, steps 10000 to 20000:
strain Temp p2 p3 p4 KinEng PotEng Press
0.15 339.872 4.60934 -0.00923518 -0.0114104 482.152 -35824.6 -15295.7
Loop time of 660.964 on 4 procs for 20000 steps with 10976 atoms

Pair  time (%) = 612.73 (92.7024)
Neigh time (%) = 1.61819 (0.244822)
Comm  time (%) = 28.6758 (4.33848)
Outpt time (%) = 0.00462002 (0.000698981)
Other time (%) = 17.936 (2.7136)

######################################
# SIMULATION DONE
print "All done"
All done
