LAMMPS (28 Jun 2014)
# Input file for uniaxial tensile loading of single crystal aluminum
# Mark Tschopp, November 2010

# ------------------------ INITIALIZATION ----------------------------
units 		metal
dimension	3
boundary	p	p	p
atom_style	atomic
variable latparam equal 4.05

# ----------------------- ATOM DEFINITION ----------------------------
lattice		fcc 4.05
Lattice spacing in x,y,z = 4.05 4.05 4.05
region		whole block 0 16 0 16 0 16
create_box	1 whole
Created orthogonal box = (0 0 0) to (64.8 64.8 64.8)
lattice 	fcc 4.05 orient x 1 0 0 orient y 0 1 0 orient z 0 0 1
Lattice spacing in x,y,z = 4.05 4.05 4.05
create_atoms	1 region whole
Created 16384 atoms

# ------------------------ FORCE FIELDS ------------------------------
pair_style	eam/alloy
pair_coeff	* * Al99.eam.alloy Al

# ------------------------- SETTINGS ---------------------------------
compute csym all centro/atom fcc
compute peratom all pe/atom

######################################
# EQUILIBRATION
reset_timestep	0
timestep 0.001
velocity all create 300 12345 mom yes rot no
fix 1 all npt temp 300 300 1 iso 0 0 1 drag 1

# Set thermo output
thermo 1000
thermo_style custom step lx ly lz press pxx pyy pzz pe temp

# Run for at least 10 picosecond (assuming 1 fs timestep)
run 20000
Step Lx Ly Lz Press Pxx Pyy Pzz PotEng Temp
0         64.8         64.8         64.8    2496.5946    2464.3333    2508.7809    2516.6696    -55050.24          300
Averages over the last 11 of 21 rows, steps 10000 to 20000:
Lx Ly Lz Press Pxx Pyy Pzz PotEng Temp
65.0092 65.0092 65.0092 -9.3849 2.6489 9.34988 -40.1535 -54486.9 267.334
Loop time of 966.614 on 4 procs for 20000 steps with 16384 atoms

Pair  time (%) = 827.273 (85.5847)
Neigh time (%) = 0 (0)
Comm  time (%) = 102.889 (10.6443)
Outpt time (%) = 0.00461775 (0.000477725)
Other time (%) = 36.4466 (3.77054)

unfix 1

# Store final cell length for strain calculations
variable tmp equal "lx"
variable L0 equal 65.0292040293441
Initial Length, L0: 65.0292040293441

######################################
# DEFORMATION
reset_timestep	0

fix		1 all npt temp 300 300 1 y 0 0 1 z 0 0 1 drag 1
variable srate equal 1.0e10
variable srate1 equal "v_srate / 1.0e12"
fix		2 all deform 1 x erate 0.01 units box remap x

# Output strain and stress info to file
# for units metal, pressure is in [bars] = 100 [kPa] = 1/10000 [GPa]
# p2, p3, p4 are in GPa
variable strain equal "(lx - v_L0)/v_L0"
variable p1 equal "v_strain"
variable p2 equal "-pxx/10000"
variable p3 equal "-pyy/10000"
variable p4 equal "-pzz/10000"

# Use cfg for AtomEye
#dump 		1 all cfg 250 dump.tensile_*.cfg id type xs ys zs c_csym c_peratom fx fy fz
#dump_modify 1 element Al

# Display thermo
thermo 	1000
thermo_style	custom step v_strain temp v_p2 v_p3 v_p4 ke pe press

run		20000
Step strain Temp p2 p3 p4 KinEng PotEng Press
0            0    291.66205 -0.0089028838 -0.0036466642 -0.0050014821    617.64367   -54439.173    58.503433
Averages over the last 11 of 21 rows, steps 10000 to 20000:
strain Temp p2 p3 p4 KinEng PotEng Press
0.15 343.029 4.63917 -0.00561311 -0.00520063 726.422 -53482 -15427.9
Loop time of 1400.38 on 4 procs for 20000 steps with 16384 atoms

Pair  time (%) = 1182.91 (84.4709)
Neigh time (%) = 3.17033 (0.226391)
Comm  time (%) = 159.974 (11.4236)
Outpt time (%) = 0.0100992 (0.000721174)
Other time (%) = 54.3128 (3.87843)

######################################
# SIMULATION DONE
print "All done"
All done
