LAMMPS (28 Jun 2014)
# Input file for uniaxial tensile loading of single crystal aluminum
# Mark Tschopp, November 2010

# ------------------------ INITIALIZATION ----------------------------
units 		metal
dimension	3
boundary	p	p	p
atom_style	atomic
variable latparam equal 4.05

# ----------------------- ATOM DEFINITION ----------------------------
lattice		fcc 4.05
Lattice spacing in x,y,z = 4.05 4.05 4.05
region		whole block 0 10 0 10 0 10
create_box	1 whole
Created orthogonal box = (0 0 0) to (40.5 40.5 40.5)
lattice 	fcc 4.05 orient x 1 0 0 orient y 0 1 0 orient z 0 0 1
Lattice spacing in x,y,z = 4.05 4.05 4.05
create_atoms	1 region whole
Created 4000 atoms

# ------------------------ FORCE FIELDS ------------------------------
pair_style	eam/alloy
pair_coeff	* * Al99.NegFRho.NegRhoR.PosPhiR.eam.alloy Al

# ------------------------- SETTINGS ---------------------------------
compute csym all centro/atom fcc
compute peratom all pe/atom

######################################
# EQUILIBRATION
reset_timestep	0
timestep 0.001
velocity all create 300 12345 mom yes rot no
fix 1 all npt temp 300 300 1 iso 0 0 1 drag 1

# Set thermo output
thermo 1000
thermo_style custom step lx ly lz press pxx pyy pzz pe temp

# Run for at least 10 picosecond (assuming 1 fs timestep)
run 20000
Step Lx Ly Lz Press Pxx Pyy Pzz PotEng Temp
0         40.5         40.5         40.5    2799.9035    2750.7704    2838.4343    2810.5058   -13434.415          300
Averages over the last 11 of 21 rows, steps 10000 to 20000:
Lx Ly Lz Press Pxx Pyy Pzz PotEng Temp
40.6449 40.6449 40.6449 52.9046 67.7981 72.9233 17.9925 -13287.5 282.578
Loop time of 275.483 on 4 procs for 20000 steps with 4000 atoms

Pair  time (%) = 220.932 (80.198)
Neigh time (%) = 0 (0)
Comm  time (%) = 45.5852 (16.5474)
Outpt time (%) = 0.00620025 (0.00225068)
Other time (%) = 8.95968 (3.25235)

unfix 1

# Store final cell length for strain calculations
variable tmp equal "lx"
variable L0 equal 40.6505103419705
Initial Length, L0: 40.6505103419705

######################################
# DEFORMATION
reset_timestep	0

fix		1 all npt temp 300 300 1 y 0 0 1 z 0 0 1 drag 1
variable srate equal 1.0e10
variable srate1 equal "v_srate / 1.0e12"
fix		2 all deform 1 x erate 0.01 units box remap x

# Output strain and stress info to file
# for units metal, pressure is in [bars] = 100 [kPa] = 1/10000 [GPa]
# p2, p3, p4 are in GPa
variable strain equal "(lx - v_L0)/v_L0"
variable p1 equal "v_strain"
variable p2 equal "-pxx/10000"
variable p3 equal "-pyy/10000"
variable p4 equal "-pzz/10000"

# Use cfg for AtomEye
#dump 		1 all cfg 250 dump.tensile_*.cfg id type xs ys zs c_csym c_peratom fx fy fz
#dump_modify 1 element Al

# Display thermo
thermo 	1000
thermo_style	custom step v_strain temp v_p2 v_p3 v_p4 ke pe press

run		20000
Step strain Temp p2 p3 p4 KinEng PotEng Press
0 3.4958613e-16    298.26746 -0.015982364 -0.028534302  -0.01689981    154.17782   -13279.162    204.72159
Averages over the last 11 of 21 rows, steps 10000 to 20000:
strain Temp p2 p3 p4 KinEng PotEng Press
0.15 339.495 4.60282 -0.0082423 0.00234173 175.489 -13056.5 -15323.1
Loop time of 402.188 on 4 procs for 20000 steps with 4000 atoms

Pair  time (%) = 300.482 (74.7118)
Neigh time (%) = 0.55183 (0.137207)
Comm  time (%) = 71.6129 (17.8058)
Outpt time (%) = 0.00366849 (0.000912132)
Other time (%) = 29.5376 (7.34423)

######################################
# SIMULATION DONE
print "All done"
All done
