# ----------------------- ATOM DEFINITION ----------------------------
lattice		fcc 4.05
Lattice spacing in x,y,z = 4.05 4.05 4.05
region		whole block 0 12 0 12 0 12
create_box	1 whole
Created orthogonal box = (0 0 0) to (48.6 48.6 48.6)
lattice 	fcc 4.05 orient x 1 0 0 orient y 0 1 0 orient z 0 0 1
Lattice spacing in x,y,z = 4.05 4.05 4.05
create_atoms	1 region whole
Created 6912 atoms

# ------------------------ FORCE FIELDS ------------------------------

#****************USE THIS TO TEST******************
pair_style	eam/rad
pair_coeff 			* * Al99.PC0.05.eam.alloy.rad.txt Al # pc = 0.5

# ------------------------- SETTINGS ---------------------------------
compute csym all centro/atom fcc
compute peratom all pe/atom

######################################
# EQUILIBRATION
reset_timestep	0
timestep	0.001 # default
# timestep	0.0001 # tiny time step
velocity all create 300 12345 mom yes rot no
fix 1 all npt temp 300 300 1 iso 0 0 1 drag 1

# Set thermo output
thermo 50
# thermo 1 # debug mode

# thermo_style custom step lx ly lz press pxx pyy pzz pe temp
# IMPLEMENTATION HERE

# VERSION add rad variables .v1 .v2
# thermo_style custom step lx ly lz press pxx pyy pzz pxxrad pyyrad pzzrad pe temp

# VERSION ublb separation .v3
thermo_style custom step lx ly lz press pxx pxxub pxxlb pyy pyyub pyylb pzz pzzub pzzlb pe temp

# Run for at least 10 picosecond (assuming 1 fs timestep)
run 	20000 # default
Step Lx Ly Lz Press Pxx Pxxub Pxxlb Pyy Pyyub Pyylb Pzz Pzzub Pzzlb PotEng Temp
0         48.6         48.6         48.6     2496.386    2451.7623    245.71825   -240.26454    2520.4586    245.71825   -240.26454     2516.937    245.71825   -240.26454    -23224.32          300
Averages over the last 201 of 401 rows, steps 10000 to 20000:
Lx Ly Lz Press Pxx Pxxub Pxxlb Pyy Pyyub Pyylb Pzz Pzzub Pzzlb PotEng Temp
48.7647 48.7647 48.7647 -1.07398 -22.9013 217.921 -261.594 -9.37947 231.425 -248.085 29.0589 269.861 -209.665 -22976.5 278.483
Loop time of 1920.16 on 4 procs for 20000 steps with 6912 atoms

Pair  time (%) = 1685.23 (87.7651)
Neigh time (%) = 0 (0)
Comm  time (%) = 160.91 (8.38007)
Outpt time (%) = 0.37609 (0.0195864)
Other time (%) = 73.6424 (3.83523)

# run 	200000

# Use this if debug
# run 	1000
# run 200
unfix 1

# Store final cell length for strain calculations
variable tmp equal "lx"
variable L0 equal 48.782905480623
Initial Length, L0: 48.782905480623

######################################
# DEFORMATION
reset_timestep	0
set atom * xrad 0 yrad 0 zrad 0 vxrad 0 vyrad 0 vzrad 0
  6912 settings made for xrad
  6912 settings made for yrad
  6912 settings made for zrad
  6912 settings made for vxrad
  6912 settings made for vyrad
  6912 settings made for vzrad
fix		1 all npt temp 300 300 1 y 0 0 1 z 0 0 1 drag 1

variable srate equal 1.0e10
# variable srate equal 1.0e9 # tiny time step

variable srate1 equal "v_srate / 1.0e12"
fix		2 all deform 1 x erate 0.01 units box remap x

# Output strain and stress info to file
# for units metal, pressure is in [bars] = 100 [kPa] = 1/10000 [GPa]
# p2, p3, p4 are in GPa
variable strain equal "(lx - v_L0)/v_L0"
variable p1 equal "v_strain"
variable p2 equal "-pxx/10000"
variable p3 equal "-pyy/10000"
variable p4 equal "-pzz/10000"

# IMPLEMENTATION HERE
variable p5 equal "-pxxrad/10000"

# VERSION add rad variables
# variable p6 equal "-pyyrad/10000"
# variable p7 equal "-pzzrad/10000"

# VERSION ublb coupled/decoupled scheme
variable p6 equal "-pxxub/10000"
variable p7 equal "-pxxlb/10000"

# Use cfg for AtomEye
# dump 		1 all cfg 250 dump.tensile_*.cfg mass type xs ys zs c_csym c_peratom fx fy fz
# dump_modify 1 element Al

# print output to a text file every n timesteps
# dump		2 all custom 50 dump.xyz_rvf_rad.tensile_*.txt mass type id x y z vx vy vz fx fy fz xrad yrad zrad vxrad vyrad vzrad fxrad fyrad fzrad # use for rad developement
# dump		2 all custom 50 dump.xyz_rvf_rad.tensile_*.txt mass type id x y z vx vy vz fx fy fz xrad yrad zrad vxrad vyrad vzrad fxrad fyrad fzrad xub yub zub vxub vyub vzub fxub fyub fzub xlb ylb zlb vxlb vylb vzlb fxlb fylb fzlb # use for ublb developement

# Display thermo
thermo 	50
# thermo 1
# thermo_style	custom step v_strain temp v_p2 v_p3 v_p4 ke pe press

# IMPLEMENTATION HERE
thermo_style	custom step v_strain temp v_p2 v_p3 v_p4 v_p5 v_p6 v_p7 ke pe press
run	20000
Step strain Temp p2 p3 p4 p5 p6 p7 KinEng PotEng Press
0 -4.3696213e-16    294.42241  0.012090582  0.024103413 0.0035848933 -0.023937849  -0.01184221  0.036004224    263.01251   -22956.783    -132.5963
Averages over the last 201 of 401 rows, steps 10000 to 20000:
strain Temp p2 p3 p4 p5 p6 p7 KinEng PotEng Press
0.15 338.017 4.70533 0.00181993 0.00321979 -0.0220567 4.68318 4.7272 301.957 -22552 -15701.2
Loop time of 3525.94 on 4 procs for 20000 steps with 6912 atoms

Pair  time (%) = 2984.22 (84.6362)
Neigh time (%) = 1.1266 (0.0319519)
Comm  time (%) = 324.524 (9.20391)
Outpt time (%) = 0.975254 (0.0276594)
Other time (%) = 215.093 (6.10029)

######################################
# SIMULATION DONE
print "All done"
All done
