# ----------------------- ATOM DEFINITION ----------------------------
lattice		fcc 4.05
Lattice spacing in x,y,z = 4.05 4.05 4.05
region		whole block 0 14 0 14 0 14
create_box	1 whole
Created orthogonal box = (0 0 0) to (56.7 56.7 56.7)
lattice 	fcc 4.05 orient x 1 0 0 orient y 0 1 0 orient z 0 0 1
Lattice spacing in x,y,z = 4.05 4.05 4.05
create_atoms	1 region whole
Created 10976 atoms

# ------------------------ FORCE FIELDS ------------------------------

#****************USE THIS TO TEST******************
pair_style	eam/rad
pair_coeff 		* * Al99.PC0.05.eam.alloy.rad.txt Al # pc = 0.5   error generating

# to test with error = 0 use this potential
# pair_coeff	* * Al99.eam.alloy.005pcrad_NULL_noerror Al

#****************USE THIS TO RUN REFRENCE***********
# pair_style	eam/alloy
# pair_coeff	* * Al99.eam.alloy Al

# ------------------------- SETTINGS ---------------------------------
compute csym all centro/atom fcc
compute peratom all pe/atom

######################################
# EQUILIBRATION
reset_timestep	0
timestep	0.001 # default
# timestep	0.0001 # tiny time step
velocity all create 300 12345 mom yes rot no
fix 1 all npt temp 300 300 1 iso 0 0 1 drag 1

# Set thermo output
thermo 50
# thermo 1 # debug mode

# thermo_style custom step lx ly lz press pxx pyy pzz pe temp
# IMPLEMENTATION HERE

# VERSION add rad variables .v1 .v2
# thermo_style custom step lx ly lz press pxx pyy pzz pxxrad pyyrad pzzrad pe temp

# VERSION ublb separation .v3
thermo_style custom step lx ly lz press pxx pxxrad pyy pyyrad pzz pzzrad pe temp

# Run for at least 10 picosecond (assuming 1 fs timestep)
run 	20000 # default
Step Lx Ly Lz Press Pxx Pxxrad Pyy Pyyrad Pzz Pzzrad PotEng Temp
0         56.7         56.7         56.7    2496.5196    2454.4963    242.99145    2519.8171    242.99145    2515.2453    242.99145    -36879.36          300
Averages over the last 201 of 401 rows, steps 10000 to 20000:
Lx Ly Lz Press Pxx Pxxrad Pyy Pyyrad Pzz Pzzrad PotEng Temp
56.8876 56.8876 56.8876 -2.23124 -26.8737 239.73 -1.34134 239.718 21.5213 239.727 -36493.9 272.854
Loop time of 2359.57 on 4 procs for 20000 steps with 10976 atoms

Pair  time (%) = 2216.35 (93.9305)
Neigh time (%) = 0 (0)
Comm  time (%) = 98.7577 (4.18542)
Outpt time (%) = 0.0897641 (0.00380426)
Other time (%) = 44.3674 (1.88032)

# run 	200000

# Use this if debug
# run 	1000
# run 200
unfix 1

# Store final cell length for strain calculations
variable tmp equal "lx"
variable L0 equal 56.9072358451624
Initial Length, L0: 56.9072358451624

######################################
# DEFORMATION
reset_timestep	0
set atom * xrad 0 yrad 0 zrad 0 vxrad 0 vyrad 0 vzrad 0
  10976 settings made for xrad
  10976 settings made for yrad
  10976 settings made for zrad
  10976 settings made for vxrad
  10976 settings made for vyrad
  10976 settings made for vzrad
fix		1 all npt temp 300 300 1 y 0 0 1 z 0 0 1 drag 1

variable srate equal 1.0e10
# variable srate equal 1.0e9 # tiny time step

variable srate1 equal "v_srate / 1.0e12"
fix		2 all deform 1 x erate 0.01 units box remap x

# Output strain and stress info to file
# for units metal, pressure is in [bars] = 100 [kPa] = 1/10000 [GPa]
# p2, p3, p4 are in GPa
variable strain equal "(lx - v_L0)/v_L0"
variable p1 equal "v_strain"
variable p2 equal "-pxx/10000"
variable p3 equal "-pyy/10000"
variable p4 equal "-pzz/10000"

# IMPLEMENTATION HERE
variable p5 equal "-pxxrad/10000"

# VERSION add rad variables
variable p6 equal "-pyyrad/10000"
variable p7 equal "-pzzrad/10000"

# VERSION ublb coupled/decoupled scheme
# variable p6 equal "-pxxub/10000"
# variable p7 equal "-pxxlb/10000"

# Use cfg for AtomEye
# dump 		1 all cfg 250 dump.tensile_*.cfg mass type xs ys zs c_csym c_peratom fx fy fz
# dump_modify 1 element Al

# print output to a text file every n timesteps
# dump		2 all custom 50 dump.xyz_rvf_rad.tensile_*.txt mass type id x y z vx vy vz fx fy fz xrad yrad zrad vxrad vyrad vzrad fxrad fyrad fzrad # use for rad developement
# dump		2 all custom 50 dump.xyz_rvf_rad.tensile_*.txt mass type id x y z vx vy vz fx fy fz xrad yrad zrad vxrad vyrad vzrad fxrad fyrad fzrad xub yub zub vxub vyub vzub fxub fyub fzub xlb ylb zlb vxlb vylb vzlb fxlb fylb fzlb # use for ublb developement

# Display thermo
thermo 	50
# thermo 1
# thermo_style	custom step v_strain temp v_p2 v_p3 v_p4 ke pe press

# IMPLEMENTATION HERE
thermo_style	custom step v_strain temp v_p2 v_p3 v_p4 v_p5 v_p6 v_p7 ke pe press
run	20000
Step strain Temp p2 p3 p4 p5 p6 p7 KinEng PotEng Press
0 1.2485982e-16    295.46089  0.011386783  0.022005685  0.013580132 -0.023931508 -0.023927989 -0.023925923    419.14972   -36465.179   -156.57533
     100        0.001    295.32862  0.076317447  0.027763491 0.0067757458 -0.023905393 -0.023910212          nan    418.96207   -36464.588   -369.52228
     200        0.002    295.05614   0.13183994 -0.018516257  -0.03038331 -0.023892802 -0.023910308          nan    418.57551   -36463.586    -276.4679
     300        0.003    294.53211   0.21659017  0.039304955   0.03387894 -0.023849021 -0.023872622          nan    417.83211   -36462.033   -965.91354
     400        0.004    295.70627   0.25237531 -0.027170251  -0.02392998 -0.023869104 -0.023899142          nan    419.49782   -36462.737   -670.91693
     500        0.005      292.482   0.35850609  0.019357532   0.01531217 -0.023810484 -0.023849003          nan    414.92376    -36457.05    -1310.586
     600        0.006    292.20901    0.3789053 -0.028725815 -0.011564242 -0.023824329  -0.02386668          nan    414.53649   -36455.415   -1128.7175
     700        0.007    295.51506   0.46512284 0.0074086378 -0.003844022 -0.023794085 -0.023843013          nan    419.22655   -36458.747   -1562.2915
     800        0.008    296.41895   0.54268207  0.032511559  0.015154699 -0.023759683 -0.023817096          nan    420.50884   -36458.574   -1967.8278
     900        0.009    295.07787   0.56016248 -0.033815601 -0.019787595 -0.023774862 -0.023837192          nan    418.60635   -36455.139   -1688.5309
    1000         0.01    295.03759   0.66349274   0.02775836  0.037666319 -0.023722558 -0.023789793          nan     418.5492   -36453.478   -2429.7247
    1100        0.011    295.53332   0.69960463 -0.0017277438 -0.027028374 -0.023736229  -0.02380777          nan    419.25246   -36452.504   -2236.1617
    1200        0.012    294.53672   0.78045285  0.016450376 0.0014808566  -0.02370143  -0.02377471          nan    417.83866    -36449.36   -2661.2803
    1300        0.013    294.76048   0.85176015 -0.019984258 -0.016228112 -0.023694844  -0.02377605          nan    418.15609    -36447.89   -2718.4926
    1400        0.014    295.09491   0.89336657  0.017964663 -5.2913956e-05  -0.02367361 -0.023758578          nan    418.63053    -36446.51   -3037.5944
    1500        0.015    295.69921    0.9494761 0.0033108082 0.0013225805 -0.023664847 -0.023750379          nan     419.4878   -36445.476    -3180.365
    1600        0.016    293.46688    1.0384923 -0.0063931646 -0.0080269744 -0.023643118 -0.023735128          nan    416.32095   -36440.358   -3413.5737
    1700        0.017    295.59899     1.095631 0.0011802077  0.012010819 -0.023624394 -0.023716042          nan    419.34562   -36441.379   -3696.0736
    1800        0.018    297.01713    1.1336487 -0.015525408 -0.0075209269 -0.023624752 -0.023725235          nan    421.35744   -36441.339   -3702.0079
    1900        0.019    297.59555    1.2395656  0.016744376  0.027394894 -0.023589961 -0.023691609          nan      422.178   -36440.038   -4279.0163
    2000         0.02    295.72362    1.2558001 -0.027208958 -0.021504302 -0.023598346 -0.023703004          nan    419.52242   -36435.211   -4023.6229
    2100        0.021    298.17352    1.3489254   0.03515663  0.012070137 -0.023564832 -0.023670997          nan    422.99793   -36436.455   -4653.8404
    2200        0.022    296.78942    1.3942373 0.0048185234 -0.0076853575 -0.023564171 -0.023672971          nan    421.03441   -36432.205   -4637.9017
    2300        0.023    296.71425    1.4599895 -0.012727055  0.007527436 -0.023547577 -0.023658804          nan    420.92777   -36429.751   -4849.2995
    2400        0.024    296.41066    1.5402632  0.011921529  0.012230047 -0.023521615 -0.023636688          nan    420.49708   -36426.913   -5214.7159
    2500        0.025     296.3824    1.5864188 0.0076580227 -0.022102143 -0.023522067 -0.023638915          nan      420.457   -36424.396   -5239.9157
    2600        0.026    297.53336    1.6582787 -0.0024034006 0.0079950822 -0.023502615 -0.023620365          nan    422.08978   -36423.498   -5546.2344
    2700        0.027    299.89762    1.7257787 -0.0030942681 0.00018362703 -0.023490996  -0.02360978          nan    425.44379   -36424.269   -5742.8936
    2800        0.028    293.55835    1.7801984 0.0019380657 -0.0076005512 -0.023473455 -0.023595718          nan    416.45071    -36412.63   -5915.1197
    2900        0.029    296.99388    1.8415205  0.002651408  0.008725071 -0.023463646 -0.023591168          nan    421.32445   -36414.779   -6176.3234
    3000         0.03     295.4089    1.8812164 -0.023511601 -0.015822276 -0.023467414 -0.023592133          nan    419.07596    -36409.75   -6139.6082
    3100        0.031    298.57971     1.984123  0.025870494  0.024373458 -0.023429056 -0.023555623          nan    423.57417   -36411.407   -6781.2232
    3200        0.032    296.13016    2.0082627 -0.018167159 -0.013668352 -0.023438987 -0.023570639          nan    420.09915   -36405.034   -6588.0906
    3300        0.033    296.55573    2.0983284 0.0064000657  0.012477585 -0.023406436 -0.023538629          nan    420.70288   -36402.676   -7057.3535
    3400        0.034    297.79124     2.152187  0.020891796 -0.010211016 -0.023398813 -0.023537314          nan    422.45562   -36401.396   -7209.5592
    3500        0.035    296.06219    2.2028845 0.0075319249   -0.0219015 -0.023393536 -0.023531713          nan    420.00273   -36395.838   -7295.0498
    3600        0.036    299.43713    2.2954072 0.0076040796  0.015102887 -0.023369522 -0.023506238          nan    424.79053   -36397.461   -7727.0473
    3700        0.037    295.73127    2.3169778 -0.025382932 -0.0062904616 -0.023377843 -0.023520686          nan    419.53328   -36388.992   -7617.6812
    3800        0.038    297.35193    2.4115375 0.00065226265  0.019070338 -0.023346313 -0.023487731          nan    421.83239   -36388.014   -8104.2002
    3900        0.039     297.9173    2.4630382  0.010697079  0.011332473 -0.023336618  -0.02347902          nan    422.63444   -36385.477   -8283.5591
    4000         0.04    298.12331    2.5152065  0.012088096 -0.026324702 -0.023333019 -0.023474889          nan    422.92669   -36382.361   -8336.5662
    4100        0.041    298.07586    2.5878645  0.027304588  0.012760838 -0.023303515 -0.023447011          nan    422.85939   -36378.825   -8759.7664
    4200        0.042    296.44553    2.6199769 -0.015159974 -0.011667142 -0.023311541 -0.023463566          nan    420.54655   -36372.983   -8643.8326
    4300        0.043    301.97413    2.7255388  0.013947085  0.028142669 -0.023278179 -0.023425619          nan    428.38959   -36377.234   -9225.4284
    4400        0.044    301.33226    2.7593873 -0.013855316 0.0022110933 -0.023282137 -0.023435451          nan    427.47902   -36372.675   -9159.1436
    4500        0.045    296.21866    2.8174888 -0.0076462566 0.00078892807  -0.02326685 -0.023423035          nan     420.2247    -36361.71   -9368.7717
    4600        0.046     295.9788    2.8876599 0.0075118819 0.0020293787 -0.023244196 -0.023398842          nan    419.88443   -36357.572   -9657.3372
    4700        0.047    298.07171    2.9284219 -0.016103055 -0.042188561 -0.023251193 -0.023408125          nan    422.85349   -36356.691   -9567.1009
    4800        0.048     298.8377    3.0230052  0.023643683  0.023577587  -0.02321308 -0.023374189          nan    423.94015   -36353.869   -10234.088
    4900        0.049    298.35929    3.0583048 -0.0064495816  0.010014225 -0.023213595 -0.023378531          nan    423.26146    -36349.21   -10206.231
    5000         0.05    296.24869    3.1049931 -0.00051003351  0.013532031 -0.023199287 -0.023365777          nan    420.26731   -36342.191   -10393.384
    5100        0.051    300.36664    3.2018928 -0.0013603977 0.0060906372   -0.0231842 -0.023348145          nan    426.10915   -36343.923   -10688.744
    5200        0.052    298.03088    3.2386049 -0.011095926 -0.0004059146 -0.023175257 -0.023346385          nan    422.79557   -36336.458    -10757.01
    5300        0.053     297.9879    3.2942996  0.013752869  0.017268137 -0.023155313 -0.023328474          nan    422.73461   -36332.182   -11084.402
    5400        0.054    301.81217    3.3535193 0.0084538993  0.012795255 -0.023151822 -0.023325752          nan    428.15983   -36333.325   -11249.228
    5500        0.055    298.29115    3.4108366 -0.0049331355  0.023189698 -0.023132018 -0.023310662          nan    423.16481   -36323.998    -11430.31
    5600        0.056    299.41595    3.4764885 -0.0090079251  0.013579554 -0.023120703 -0.023303281          nan    424.76047   -36321.183   -11603.534
    5700        0.057    299.00442    3.5269569  0.011112821 0.0040437577 -0.023103396 -0.023284882          nan    424.17667   -36316.141   -11807.045
    5800        0.058    297.52696    3.5853053 -0.013737478  0.013780521 -0.023096601 -0.023285885          nan     422.0807   -36309.511   -11951.161
    5900        0.059    296.99933    3.6383118 -0.019032222 -0.0011855744 -0.023082728 -0.023273928          nan    421.33219   -36304.183   -12060.313
    6000         0.06    297.18613    3.7093636 0.0063282176  0.010842771 -0.023062029  -0.02325394          nan    421.59719     -36299.8   -12421.782
    6100        0.061     299.2432    3.7461002 0.0036340829 -0.016209834 -0.023058595 -0.023251798          nan    424.51541   -36298.004   -12445.082
    6200        0.062    296.79569    3.8283526  0.020307163  0.012547433 -0.023028987 -0.023224835          nan     421.0433   -36289.755   -12870.691
    6300        0.063    298.10581    3.8695959 -0.039731621 -0.0078151684 -0.023037033 -0.023242216          nan    422.90188   -36286.773   -12740.164
    6400        0.064    294.68418     3.927148 -0.0034582979  0.008628243 -0.023005412 -0.023212531          nan    418.04784   -36277.012   -13107.726
    6500        0.065    298.86272    3.9968836 -0.010975402 0.0022414892 -0.023002031 -0.023211792          nan    423.97565   -36277.975   -13293.832
    6600        0.066    298.65098    4.0445651 -0.011055245  0.015051899 -0.022986324 -0.023195335          nan    423.67527   -36272.671   -13495.206
    6700        0.067    299.84443    4.1094672  0.037559104  0.010855573 -0.022958933 -0.023164428          nan    425.36833   -36269.276   -13859.606
    6800        0.068    294.17197    4.1529729 -0.030797402 -0.039870789 -0.022967949 -0.023186074          nan    417.32121   -36256.076   -13607.682
    6900        0.069    294.17103    4.2286445 -5.9522801e-05   0.02062037 -0.022928185 -0.023143635          nan    417.31988   -36250.852   -14164.018
    7000         0.07    297.07101    4.2507624 -0.025049385  -0.01326612 -0.022936788 -0.023161794          nan    421.43388   -36249.716    -14041.49
    7100        0.071    298.25112     4.340162  0.018785572  0.014540943 -0.022901088 -0.023121581          nan    423.10802   -36246.067   -14578.295
    7200        0.072    298.15302    4.3991155 -0.0006771141 -0.010935819 -0.022897337 -0.023124317          nan    422.96885   -36240.524   -14625.008
    7300        0.073    296.72214    4.4322069 -0.027441174 0.0032233293 -0.022887809 -0.023119961          nan    420.93896   -36233.048   -14693.297
    7400        0.074    298.49271    4.5156409 0.0085485679  0.030227103 -0.022857522 -0.023086833          nan    423.45074   -36230.053   -15181.389
    7500        0.075    296.07931    4.5446728 -0.014796947 -0.018823215 -0.022862227 -0.023099698          nan    420.02702   -36221.056   -15036.842
    7600        0.076    297.32719    4.6363802  0.031072213 -0.0050362977  -0.02282762 -0.023062322          nan     421.7973    -36217.19   -15541.387
    7700        0.077    297.68266    4.6557195 -0.021631275 -0.024322098 -0.022836965 -0.023079555          nan    422.30158   -36212.008   -15365.887
    7800        0.078    296.13149    4.7268278  0.010973117  0.027427175 -0.022795877 -0.023041253          nan    420.10104   -36204.061   -15884.094
    7900        0.079    295.71834    4.7700328 -0.040024844 -0.0011211596 -0.022798944 -0.023055081          nan    419.51494   -36197.682   -15762.956
    8000         0.08    297.67802    4.8473001  0.014554803 0.0062880328 -0.022771949 -0.023020672          nan      422.295   -36194.588   -16227.143
    8100        0.081    297.78997     4.895581  0.022047999 -0.005782552 -0.022755627 -0.023006638          nan    422.45381   -36188.808   -16372.821
    8200        0.082    297.24418    4.9455188 -0.0012467329 -0.015718461 -0.022748252 -0.023004685          nan    421.67954   -36182.033   -16428.512
    8300        0.083     299.0375    5.0146566 0.0039888276  0.013547681 -0.022727417  -0.02298946          nan     424.2236   -36178.523   -16773.977
    8400        0.084    301.21096    5.0705825 -0.009081507  0.022887009 -0.022718016 -0.022988043          nan    427.30693   -36175.487    -16947.96
    8500        0.085    298.80145    5.1399865  0.013097593  0.035375649 -0.022686953 -0.022957111          nan    423.88872   -36165.891   -17294.866
    8600        0.086    296.34672    5.1575836 -0.010541074 -0.039376757 -0.022692666 -0.022967087          nan    420.40638   -36156.165   -17025.552
    8700        0.087    295.51824    5.2376536  0.016328115  0.011037415 -0.022653498  -0.02292902          nan    419.23106   -36148.689   -17550.064
    8800        0.088    292.65635    5.2758938  -0.01292053 -0.034613488 -0.022655097 -0.022937741          nan     415.1711   -36138.269   -17427.866
    8900        0.089    297.72251    5.3476637  0.011259257  0.024697759 -0.022627622  -0.02291148          nan    422.35812   -36139.023   -17945.402
    9000         0.09    298.16135    5.4028624 -0.013567585 -0.011862291  -0.02261822 -0.022906738          nan    422.98067   -36133.165   -17924.775
    9100        0.091    300.56406    5.4627832  0.022878171  0.011956125 -0.022595777 -0.022887763          nan    426.38923   -36130.028   -18325.392
    9200        0.092    296.96906    5.4945755 -0.0056974353 -0.0044916754 -0.022588524 -0.022885168          nan    421.28925   -36118.323   -18281.288
    9300        0.093     296.7219    5.5606361 0.0057871292  0.010490076 -0.022558818  -0.02285623          nan    420.93861   -36111.324   -18589.711
    9400        0.094    299.39265    5.6071989 -0.010764057 0.0017075802 -0.022553191 -0.022858208          nan    424.72742   -36108.407   -18660.475
    9500        0.095    297.45794     5.668388 0.0059971538 0.0091751569 -0.022528252 -0.022835618          nan    421.98279   -36098.876   -18945.201
    9600        0.096      298.014    5.7349377  0.023095993 -0.0035304117 -0.022508791 -0.022821245          nan    422.77163   -36092.818   -19181.677
    9700        0.097     296.2627    5.7662136 -0.010880236 0.00026694701 -0.022502756 -0.022818472          nan    420.28719   -36083.413   -19185.334
    9800        0.098    294.92899    5.8204341 0.0027134946  0.010459432 -0.022473389 -0.022787395          nan    418.39514   -36074.563   -19445.357
    9900        0.099    296.65324    5.8769259 -0.010379503 0.0023810337 -0.022462368 -0.022782547          nan    420.84122   -36069.982   -19563.091
   10000          0.1    298.84984    5.9429971  0.011499666  0.016492969 -0.022439201 -0.022763896          nan    423.95737   -36066.008   -19903.299
   10100        0.101    294.73676    5.9789749 -0.0096212216 -0.018001569 -0.022426344 -0.022754853          nan    418.12244   -36053.035    -19837.84
   10200        0.102    296.82443    6.0417878  0.015831794  0.012625355  -0.02240626 -0.022740565          nan    421.08406   -36048.813    -20234.15
   10300        0.103    295.02156    6.0741519 -0.031244428 -0.013801883 -0.022396156 -0.022740091          nan    418.52646   -36039.008   -20097.019
   10400        0.104    294.56929    6.1253548 0.0028668886   0.01016637 -0.022363798 -0.022706116          nan    417.88486   -36031.065   -20461.293
   10500        0.105    296.60643    6.1803138 0.0023150856 -0.014439089 -0.022360257 -0.022700993          nan     420.7748   -36026.591   -20560.633
   10600        0.106    294.80396    6.2461875 0.0076239748 0.0035472572 -0.022330276 -0.022676034          nan    418.21778   -36016.618   -20857.862
   10700        0.107    297.29372    6.3144249  0.020938951 -0.0035628538 -0.022311568 -0.022661059          nan    421.74981   -36012.655   -21106.003
   10800        0.108    297.63976    6.3543959 -0.0033914052 -0.0045268459 -0.022301356 -0.022660464          nan    422.24071   -36005.596   -21154.926
   10900        0.109    295.02606    6.3972389 0.0034426556  0.020389185 -0.022271518 -0.022630131          nan    418.53284   -35994.293   -21403.569
   11000         0.11    295.10985     6.445433 -0.010663938 -0.0040645353 -0.022261308 -0.022626328          nan    418.65171    -35986.76   -21435.682
   11100        0.111    293.62905    6.4833183 -0.0054543624 -0.022573896 -0.022244773 -0.022608502          nan    416.55101   -35976.925   -21517.633
   11200        0.112    293.34287    6.5488977 0.0032269398  0.021896181 -0.022207344 -0.022577523          nan    416.14503   -35968.757   -21913.403
   11300        0.113    297.25012    6.6199558 0.0065620009 -0.0057825791 -0.022202955 -0.022581808          nan    421.68797   -35966.445   -22069.118
   11400        0.114     293.0997    6.6351013 -0.0023067672 -0.020242673 -0.022181947  -0.02255956          nan    415.80006   -35952.673    -22041.84
   11500        0.115    293.97931    6.7219892  0.011680149  0.015234535  -0.02214893 -0.022534421          nan    417.04789   -35945.955   -22496.346
   11600        0.116    295.47762    6.7246779 -0.041604667 -0.0080537553 -0.022156318 -0.022548426          nan    419.17345   -35940.078   -22250.065
   11700        0.117    294.12952    6.8194248  0.034335279  0.043585624 -0.022093082 -0.022479509          nan    417.26099   -35930.114   -22991.152
   11800        0.118    296.77426    6.8374115 -0.021949371 -0.033895689 -0.022113777 -0.022508571          nan     421.0129   -35925.737   -22605.221
   11900        0.119    295.30141     6.904173   0.03113639  0.028814251  -0.02206143  -0.02245231          nan    418.92347    -35915.48   -23213.746
   12000         0.12    293.05894    6.9210322 -0.015006142 0.0044806629 -0.022059042 -0.022457145          nan    415.74223   -35904.064   -23035.022
   12100        0.121    297.06322    7.0047929 -0.0065413007 -0.011396056  -0.02204497 -0.022452245          nan    421.42283   -35901.423   -23289.518
   12200        0.122    295.41954    7.0503319  0.030117293 0.0093068016 -0.022011967 -0.022421728          nan    419.09105   -35890.743    -23632.52
   12300        0.123    293.37415    7.0912975 -0.017893479 -0.015962061 -0.022002488 -0.022423783          nan     416.1894    -35879.45   -23524.807
   12400        0.124     293.3957    7.1603095 0.0096962486  0.032607411 -0.021961025 -0.022390147          nan    416.21997   -35871.005   -24008.711
   12500        0.125    289.83246    7.1660656 -0.053391874 -0.025811347 -0.021964872 -0.022399306          nan    411.16505   -35857.461   -23622.875
   12600        0.126    293.87493     7.248452  0.027045442  0.029059452 -0.021920208 -0.022351836          nan    416.89982   -35854.628   -24348.523
   12700        0.127     292.9702    7.2532066 -0.026200687 -0.026934204 -0.021923078 -0.022357845          nan    415.61634    -35844.75   -24000.239
   12800        0.128    292.57639    7.3309997  0.025531656   0.01052919 -0.021872594 -0.022305091          nan    415.05767   -35835.529   -24556.869
   12900        0.129    292.78145    7.3323242  0.019430385 -0.024301903 -0.021867875 -0.022299871          nan    415.34857   -35827.141   -24424.842
   13000         0.13    294.17339     7.384443  0.011475258 -0.012184028 -0.021843215 -0.022288839          nan    417.32322    -35820.39   -24612.447
   13100        0.131    291.14608    7.4134054 -0.00081829764  0.022246691 -0.021815398 -0.022260285          nan     413.0286   -35807.304   -24782.779
   13200        0.132    293.20254    7.4883142 -0.021417962 0.0072317423 -0.021796697 -0.022255003          nan    415.94594   -35801.373    -24913.76
   13300        0.133    293.87438    7.5475587  0.010558357  0.018779014  -0.02176459 -0.022222038          nan    416.89904   -35793.395    -25256.32
   13400        0.134    290.63213     7.551328 -0.011372407 -0.044247817  -0.02175748 -0.022220961          nan    412.29949   -35779.826   -24985.693
   13500        0.135    291.94533    7.6075429  0.024449443  0.020789773 -0.021719427 -0.022178126          nan    414.16244   -35772.669   -25509.274
   13600        0.136    291.27745    7.6504689 -0.0051808176 -0.040161141 -0.021712007 -0.022183592          nan    413.21496   -35762.664   -25350.423
   13700        0.137    293.15761    7.7119891  0.010560087  0.032581176 -0.021670442 -0.022146704          nan     415.8822   -35756.231   -25850.434
   13800        0.138    296.30988    7.7264835 -0.0027485387 0.0014745999 -0.021666929 -0.022146126          nan    420.35411    -35751.54   -25750.699
   13900        0.139    293.85696    7.7812373  0.035025019  0.033328983 -0.021612556 -0.022094892          nan    416.87432   -35738.891   -26165.304
   14000         0.14    289.97753    7.7489252 -0.018827889 -0.011569022 -0.021618173 -0.022105646          nan    411.37085   -35724.164   -25728.428
   14100        0.141    295.03898    7.8491131  0.017537104 0.0018052168 -0.021581359 -0.022075754          nan    418.55117   -35722.062   -26228.185
   14200        0.142    287.48236    7.8108341 0.0085789913  0.010934354 -0.021543911 -0.022026445          nan    407.83112   -35702.023   -26101.158
   14300        0.143    292.33699    7.8939512 -0.013743638 -0.014108475 -0.021543794 -0.022039015          nan    414.71806   -35699.554    -26220.33
   14400        0.144    290.48838    7.9195567  0.028659963  0.010205896 -0.021501804 -0.021993698          nan    412.09556   -35687.517   -26528.075
   14500        0.145     290.3184    7.9384843 -0.018436775 -0.0032479938 -0.021490467 -0.021990758          nan    411.85442   -35677.838   -26389.332
   14600        0.146    291.72175    7.9901279 0.0050393041  0.028825262 -0.021453303 -0.021958252          nan    413.84526   -35670.363   -26746.642
   14700        0.147    288.79943    8.0297227  0.010749372 -0.011207202 -0.021435741 -0.021946427          nan    409.69956   -35656.672   -26764.216
   14800        0.148    289.62924    7.9982341 -0.013213696  -0.03457433 -0.021417896 -0.021933328          nan    410.87675   -35648.292   -26501.487
   14900        0.149    288.98118    8.0558972  0.057960849  0.049637762 -0.021360255 -0.021866001          nan     409.9574   -35637.804   -27211.653
   15000         0.15    286.62174    7.9692228 -0.082468419 -0.040347847 -0.021389621 -0.021905752          nan    406.61023   -35624.891   -26154.689
   15100        0.151    287.89803    7.9844486  0.053813876  0.037807227 -0.021313358 -0.021815797          nan     408.4208   -35617.137   -26920.232
   15200        0.152    294.28424    7.8321697 -0.026459244 -0.0055005615 -0.021339394 -0.021844483          nan    417.48048   -35616.731     -26000.7
   15300        0.153     296.6385    7.6319036  0.050008002  0.023540494 -0.021281373 -0.021765084          nan     420.8203   -35610.867    -25684.84
   15400        0.154    301.29052    7.1592265 -0.017327003 -0.0064242405 -0.021282345 -0.021759577          nan     427.4198   -35608.713   -23784.918
   15500        0.155    319.92192    6.6649972 0.0026873248   0.01730906 -0.021281984 -0.021738573          nan    453.85087   -35627.159   -22283.312
   15600        0.156    328.55422    5.9077002  0.027397498  0.005701724 -0.021264464 -0.021689408          nan    466.09691   -35632.644   -19802.665
   15700        0.157    346.27958    5.0842955 -0.031775185  0.023820014 -0.021310577 -0.021718663          nan    491.24263   -35652.705   -16921.135
   15800        0.158    361.10523    4.1971544  0.017246741  0.020451469 -0.021369854 -0.021732634          nan    512.27475   -35670.744   -14116.176
   15900        0.159     375.5655    3.3742521 -0.021095012  0.059274151  -0.02149312  -0.02180857          nan    532.78852   -35690.376   -11374.771
   16000         0.16    379.92678    2.8276468  0.010064476 -0.041742038 -0.021610933 -0.021887285          nan    538.97556   -35696.778   -9319.8974
   16100        0.161    386.68562    2.4122732  0.039903063   0.05222917 -0.021666206 -0.021900892          nan    548.56386   -35707.132   -8348.0181
   16200        0.162    390.16052    1.9870604  -0.01937689  0.019113238 -0.021808172     -0.02201          nan    553.49345   -35713.576   -6622.6559
   16300        0.163     397.9926    1.8009305 -0.0021458278 -0.027445366 -0.021893714 -0.022071034          nan    564.60428    -35726.73   -5904.4643
   16400        0.164    399.58754    1.7638636  0.011513189   0.05053043 -0.021884976 -0.022060558          nan    566.86691   -35731.643   -6086.3573
   16500        0.165     398.0605    1.6686895 -0.020190414 -0.017259672 -0.021959519 -0.022121844          nan     564.7006   -35732.428   -5437.4647
   16600        0.166    405.32867     1.730211  0.013699956 -0.0003380409 -0.021964375 -0.022126166          nan    575.01144   -35745.843   -5811.9098
   16700        0.167    407.51475    1.6777445  0.041000754 -0.034329629 -0.022003897 -0.022149737          nan    578.11269   -35752.262   -5614.7186
   16800        0.168    403.83679    1.5675996 -0.028416259 0.0098043631 -0.022032663 -0.022184101          nan    572.89502   -35750.554   -5163.2925
   16900        0.169    406.63033    1.5628295 -0.018169853  0.051586882 -0.022046969 -0.022196496          nan    576.85803    -35758.15   -5320.8218
   17000         0.17    413.08292    1.4859646 0.0057949976  0.019213777 -0.022093039 -0.022235403          nan    586.01186   -35771.107   -5036.5778
   17100        0.171    413.86931    1.4770525  0.015324763  0.041949202 -0.022105248 -0.022245326          nan    587.12745   -35776.077   -5114.4214
   17200        0.172    411.38542    1.4585425   -0.0402102  0.034977637 -0.022107824  -0.02226134          nan    583.60374   -35776.665   -4844.3666
   17300        0.173    411.27109    1.3577092  0.071411831 0.0044979415 -0.022112839 -0.022243619          nan    583.44155    -35780.59   -4778.7299
   17400        0.174    407.79077    1.2902152 -0.019359244 -0.033973845 -0.022165201 -0.022294343          nan    578.50426   -35779.733   -4122.9403
   17500        0.175    408.54452    1.3171809 0.0080497279 -0.00073097733 -0.022162907 -0.022290628          nan    579.57355   -35784.929   -4414.9989
   17600        0.176    404.61257    1.3204611  0.018842217 -0.070001359 -0.022180322 -0.022305906          nan    573.99556   -35783.533   -4231.0067
   17700        0.177    410.77912    1.2984699 0.0050552697   0.01886508 -0.022176605 -0.022305461          nan    582.74362   -35796.494   -4407.9674
   17800        0.178    410.09707    1.2650152 -0.013359407  0.068870941 -0.022197234 -0.022322666          nan    581.77604   -35799.636   -4401.7559
   17900        0.179    412.48993    1.2166644 0.0077532856 0.0019136803 -0.022214858 -0.022329033          nan    585.17063   -35807.268   -4087.7714
   18000         0.18    404.59168    1.2683907 0.0045549183 -0.015451653 -0.022205213 -0.022328027          nan    573.96593   -35800.184   -4191.6465
   18100        0.181    401.89463    1.3194536 -0.006541122 0.0022045589 -0.022198371 -0.022327118          nan    570.13982   -35800.421   -4383.7235
   18200        0.182    402.69466     1.304922 -0.0082823506 -0.016952631 -0.022210826  -0.02234204          nan    571.27477   -35805.558   -4265.6232
   18300        0.183    404.58946    1.2923382  0.012759673 0.00025999061 -0.022212584  -0.02233784          nan    573.96279   -35812.233    -4351.193
   18400        0.184    404.68895    1.2837895  -0.03612358  0.029918596  -0.02221537 -0.022349454          nan    574.10393   -35816.376   -4258.6151
   18500        0.185    404.69095    1.2529339  0.015144581 -0.013482451 -0.022229485 -0.022353858          nan    574.10677   -35820.385   -4181.9867
   18600        0.186    400.82536    1.2703028 0.0055480561 -0.039046025 -0.022238242 -0.022357653          nan    568.62291   -35818.852   -4122.6828
   18700        0.187    398.75275    1.3671674  0.016542326  0.059735802 -0.022204308 -0.022330963          nan    565.68265   -35819.695    -4811.485
   18800        0.188    399.69444    1.2887816  -0.06009271 -0.027013274 -0.022253923 -0.022381599          nan    567.01857   -35824.825   -4005.5855
   18900        0.189    393.39198    1.2819174  0.016664238  0.038376275 -0.022223639 -0.022350986          nan    558.07771   -35819.684   -4456.5263
   19000         0.19    397.88018    1.3380786 -0.0024057504 -0.0065765941 -0.022238253 -0.022372139          nan     564.4448   -35829.759   -4430.3207
   19100        0.191    395.84596    1.3014359 -0.020275048 0.0054240521 -0.022248815 -0.022374777          nan    561.55899   -35830.531   -4288.6163
   19200        0.192    400.52984     1.306795 -0.018733426  0.037956805  -0.02226073 -0.022385525          nan    568.20368   -35840.839   -4420.0611
   19300        0.193    394.27349    1.3503012 0.0064326352 -0.020853792 -0.022243881 -0.022371881          nan    559.32823   -35835.576   -4452.9333
   19400        0.194    394.18691    1.3814851  0.070259378 -0.016144152 -0.022248929 -0.022363932          nan    559.20541   -35838.954   -4785.3344
   19500        0.195    391.95499    1.2864335 -0.047492329 -0.020975516 -0.022301005 -0.022418772          nan    556.03915   -35839.297   -4059.8855
   19600        0.196    388.71922    1.3657999  0.034857979  0.054085438  -0.02224219  -0.02235639          nan    551.44878   -35838.123   -4849.1444
   19700        0.197    388.63259    1.3483387 -0.0036523267 -0.060029417 -0.022281007 -0.022404229          nan    551.32588   -35841.348   -4282.1898
   19800        0.198    393.53346    1.3897544  0.032311664 0.0084938129 -0.022247972 -0.022381445          nan     558.2784   -35851.548   -4768.5328
   19900        0.199    383.94404    1.3643796 0.0080654404 0.0023176823 -0.022241796 -0.022375429          nan    544.67457   -35841.164   -4582.5425
   20000          0.2    385.31393    1.3706464 -0.015604183 -0.033765673 -0.022266858 -0.022401554          nan    546.61793   -35846.284   -4404.2551
Loop time of 2810.57 on 4 procs for 20000 steps with 10976 atoms

Pair  time (%) = 2659.72 (94.6329)
Neigh time (%) = 1.66002 (0.0590636)
Comm  time (%) = 99.3321 (3.53423)
Outpt time (%) = 0.0977447 (0.00347775)
Other time (%) = 49.7576 (1.77037)

######################################
# SIMULATION DONE
print "All done"
All done
