LAMMPS (28 Jun 2014)
# Input file for uniaxial tensile loading of single crystal aluminum
# Mark Tschopp, November 2010

# ------------------------ INITIALIZATION ----------------------------
units 		metal
dimension	3
boundary	p	p	p
atom_style	atomic
variable latparam equal 4.05

# ----------------------- ATOM DEFINITION ----------------------------
lattice		fcc 4.05
Lattice spacing in x,y,z = 4.05 4.05 4.05
region		whole block 0 12 0 12 0 12
create_box	1 whole
Created orthogonal box = (0 0 0) to (48.6 48.6 48.6)
lattice 	fcc 4.05 orient x 1 0 0 orient y 0 1 0 orient z 0 0 1
Lattice spacing in x,y,z = 4.05 4.05 4.05
create_atoms	1 region whole
Created 6912 atoms

# ------------------------ FORCE FIELDS ------------------------------
pair_style	eam/alloy
pair_coeff	* * Al99.eam.alloy Al

# ------------------------- SETTINGS ---------------------------------
compute csym all centro/atom fcc
compute peratom all pe/atom

######################################
# EQUILIBRATION
reset_timestep	0
timestep 0.001
velocity all create 300 12345 mom yes rot no
fix 1 all npt temp 300 300 1 iso 0 0 1 drag 1

# Set thermo output
thermo 1000
thermo_style custom step lx ly lz press pxx pyy pzz pe temp

# Run for at least 10 picosecond (assuming 1 fs timestep)
run 20000
Step Lx Ly Lz Press Pxx Pyy Pzz PotEng Temp
0         48.6         48.6         48.6     2496.386    2451.7623    2520.4586     2516.937    -23224.32          300
Averages over the last 11 of 21 rows, steps 10000 to 20000:
Lx Ly Lz Press Pxx Pyy Pzz PotEng Temp
48.7652 48.7652 48.7652 -65.2381 -87.9268 -80.125 -27.6626 -22977.4 278.414
Loop time of 324.789 on 4 procs for 20000 steps with 6912 atoms

Pair  time (%) = 293.806 (90.4607)
Neigh time (%) = 0 (0)
Comm  time (%) = 21.277 (6.55102)
Outpt time (%) = 0.00352478 (0.00108525)
Other time (%) = 9.70194 (2.98716)

unfix 1

# Store final cell length for strain calculations
variable tmp equal "lx"
variable L0 equal 48.782905480623
Initial Length, L0: 48.782905480623

######################################
# DEFORMATION
reset_timestep	0

fix		1 all npt temp 300 300 1 y 0 0 1 z 0 0 1 drag 1
variable srate equal 1.0e10
variable srate1 equal "v_srate / 1.0e12"
fix		2 all deform 1 x erate 0.01 units box remap x

# Output strain and stress info to file
# for units metal, pressure is in [bars] = 100 [kPa] = 1/10000 [GPa]
# p2, p3, p4 are in GPa
variable strain equal "(lx - v_L0)/v_L0"
variable p1 equal "v_strain"
variable p2 equal "-pxx/10000"
variable p3 equal "-pyy/10000"
variable p4 equal "-pzz/10000"

# Use cfg for AtomEye
#dump 		1 all cfg 250 dump.tensile_*.cfg id type xs ys zs c_csym c_peratom fx fy fz
#dump_modify 1 element Al

# Display thermo
thermo 	1000
thermo_style	custom step v_strain temp v_p2 v_p3 v_p4 ke pe press

run		20000
Step strain Temp p2 p3 p4 KinEng PotEng Press
0 -4.3696213e-16    294.42241  0.012090582  0.024103413 0.0035848933    263.01251   -22956.783    -132.5963
Averages over the last 11 of 21 rows, steps 10000 to 20000:
strain Temp p2 p3 p4 KinEng PotEng Press
0.15 337.86 4.59492 0.0188335 0.0048152 301.816 -22560.3 -15395.2
Loop time of 414.439 on 4 procs for 20000 steps with 6912 atoms

Pair  time (%) = 380.043 (91.7006)
Neigh time (%) = 0.869295 (0.209752)
Comm  time (%) = 22.7084 (5.47931)
Outpt time (%) = 0.00273716 (0.000660451)
Other time (%) = 10.8154 (2.60966)

######################################
# SIMULATION DONE
print "All done"
All done
