# ----------------------- ATOM DEFINITION ----------------------------
lattice		fcc 4.05
Lattice spacing in x,y,z = 4.05 4.05 4.05
region		whole block 0 16 0 16 0 16
create_box	1 whole
Created orthogonal box = (0 0 0) to (64.8 64.8 64.8)
lattice 	fcc 4.05 orient x 1 0 0 orient y 0 1 0 orient z 0 0 1
Lattice spacing in x,y,z = 4.05 4.05 4.05
create_atoms	1 region whole
Created 16384 atoms

# ------------------------ FORCE FIELDS ------------------------------

#****************USE THIS TO TEST******************
pair_style	eam/rad
pair_coeff 		* * Al99.PC0.05.eam.alloy.rad.txt Al # pc = 0.5   error generating

# to test with error = 0 use this potential
# pair_coeff	* * Al99.eam.alloy.005pcrad_NULL_noerror Al

#****************USE THIS TO RUN REFRENCE***********
# pair_style	eam/alloy
# pair_coeff	* * Al99.eam.alloy Al

# ------------------------- SETTINGS ---------------------------------
compute csym all centro/atom fcc
compute peratom all pe/atom

######################################
# EQUILIBRATION
reset_timestep	0
timestep	0.001 # default
# timestep	0.0001 # tiny time step
velocity all create 300 12345 mom yes rot no
fix 1 all npt temp 300 300 1 iso 0 0 1 drag 1

# Set thermo output
thermo 50
# thermo 1 # debug mode

# thermo_style custom step lx ly lz press pxx pyy pzz pe temp
# IMPLEMENTATION HERE

# VERSION add rad variables .v1 .v2
# thermo_style custom step lx ly lz press pxx pyy pzz pxxrad pyyrad pzzrad pe temp

# VERSION ublb separation .v3
thermo_style custom step lx ly lz press pxx pxxrad pyy pyyrad pzz pzzrad pe temp

# Run for at least 10 picosecond (assuming 1 fs timestep)
run 	20000 # default
Step Lx Ly Lz Press Pxx Pxxrad Pyy Pyyrad Pzz Pzzrad PotEng Temp
0         64.8         64.8         64.8    2496.5946    2464.3333    242.99145    2508.7809    242.99145    2516.6696     485.9829    -55050.24          300
Averages over the last 201 of 401 rows, steps 10000 to 20000:
Lx Ly Lz Press Pxx Pxxrad Pyy Pyyrad Pzz Pzzrad PotEng Temp
65.0093 65.0093 65.0093 -0.440813 7.94012 21685.9 15.0659 21742.8 -24.3284 483.483 -54485.9 267.66
Loop time of 3966.06 on 4 procs for 20000 steps with 16384 atoms

Pair  time (%) = 3649.61 (92.0209)
Neigh time (%) = 0 (0)
Comm  time (%) = 204.517 (5.15667)
Outpt time (%) = 1.79034 (0.0451415)
Other time (%) = 110.149 (2.7773)

# run 	200000

# Use this if debug
# run 	1000
# run 200
unfix 1

# Store final cell length for strain calculations
variable tmp equal "lx"
variable L0 equal 65.0292040293441
Initial Length, L0: 65.0292040293441

######################################
# DEFORMATION
reset_timestep	0
set atom * xrad 0 yrad 0 zrad 0 vxrad 0 vyrad 0 vzrad 0
  16384 settings made for xrad
  16384 settings made for yrad
  16384 settings made for zrad
  16384 settings made for vxrad
  16384 settings made for vyrad
  16384 settings made for vzrad
fix		1 all npt temp 300 300 1 y 0 0 1 z 0 0 1 drag 1

variable srate equal 1.0e10
# variable srate equal 1.0e9 # tiny time step

variable srate1 equal "v_srate / 1.0e12"
fix		2 all deform 1 x erate 0.01 units box remap x

# Output strain and stress info to file
# for units metal, pressure is in [bars] = 100 [kPa] = 1/10000 [GPa]
# p2, p3, p4 are in GPa
variable strain equal "(lx - v_L0)/v_L0"
variable p1 equal "v_strain"
variable p2 equal "-pxx/10000"
variable p3 equal "-pyy/10000"
variable p4 equal "-pzz/10000"

# IMPLEMENTATION HERE
variable p5 equal "-pxxrad/10000"

# VERSION add rad variables
variable p6 equal "-pyyrad/10000"
variable p7 equal "-pzzrad/10000"

# VERSION ublb coupled/decoupled scheme
# variable p6 equal "-pxxub/10000"
# variable p7 equal "-pxxlb/10000"

# Use cfg for AtomEye
# dump 		1 all cfg 250 dump.tensile_*.cfg mass type xs ys zs c_csym c_peratom fx fy fz
# dump_modify 1 element Al

# print output to a text file every n timesteps
# dump		2 all custom 50 dump.xyz_rvf_rad.tensile_*.txt mass type id x y z vx vy vz fx fy fz xrad yrad zrad vxrad vyrad vzrad fxrad fyrad fzrad # use for rad developement
# dump		2 all custom 50 dump.xyz_rvf_rad.tensile_*.txt mass type id x y z vx vy vz fx fy fz xrad yrad zrad vxrad vyrad vzrad fxrad fyrad fzrad xub yub zub vxub vyub vzub fxub fyub fzub xlb ylb zlb vxlb vylb vzlb fxlb fylb fzlb # use for ublb developement

# Display thermo
thermo 	50
# thermo 1
# thermo_style	custom step v_strain temp v_p2 v_p3 v_p4 ke pe press

# IMPLEMENTATION HERE
thermo_style	custom step v_strain temp v_p2 v_p3 v_p4 v_p5 v_p6 v_p7 ke pe press
run	20000
Step strain Temp p2 p3 p4 p5 p6 p7 KinEng PotEng Press
       0            0    291.66205 -0.0089028838 -0.0036466642 -0.0050014821 -0.023946032 -0.023941306          nan    617.64367   -54439.173    58.503433
      50       0.0005    291.63353  0.039089639  0.013632449  0.032936288   -2.4071402   -2.3691747          nan    617.58328   -54438.855   -285.52792
     100        0.001    290.30026  0.072713263  0.012380118  0.017318566 -0.024317019 -0.024338839          nan    614.75986   -54435.668   -341.37316
     150       0.0015    291.42485  0.089428101 -0.022424274 -0.004813619   -2.3434172   -2.4136764          nan    617.14136    -54437.57   -207.30069
     200        0.002    290.74457   0.10834932 0.0053879461 -0.015634771 -0.024323339 -0.024325544          nan    615.70075   -54435.542   -327.00832
     250       0.0025     290.4986   0.16383608  0.011992693 4.6838343e-05   -2.3781607   -2.3866335          nan    615.17987   -54434.346   -586.25203
     300        0.003    289.34835    0.1891214  0.012486457  0.007984165 -0.024283013 -0.024307498          nan    612.74402   -54431.151   -698.64007
     350       0.0035    291.43776   0.22636221 0.0021018116 -0.0040730853   -2.4036972   -2.3857125          nan    617.16871   -54434.739    -747.9698
     400        0.004    289.65682   0.24979058 -0.0098124585 -0.0089095852 -0.024273621 -0.024299394          nan    613.39725   -54430.043   -770.22845
     450       0.0045    291.72314   0.28866541 -0.0063711314 0.0026746728   -2.3719146   -2.4083909          nan    617.77304   -54433.445   -949.89651
     500        0.005    292.34391    0.3318371 0.0040886813   0.03106471 -0.024243005 -0.024289818          nan    619.08762   -54433.728   -1223.3017
     550       0.0055    294.21166   0.35775038  0.014507858   0.01524457   -2.4081958   -2.4262047          nan    623.04289   -54436.609    -1291.676
     600        0.006    289.88005   0.36769008 -0.013708684 -0.00012953215 -0.024246021 -0.024278103          nan    613.86998    -54426.32   -1179.5062
     650       0.0065    294.54373   0.41206211 -0.0030559785 -0.014768714   -2.4036491   -2.3832591          nan     623.7461   -54435.041   -1314.1247
     700        0.007    289.86122   0.45153952 0.0095339883 -0.0053971864 -0.024210146 -0.024258839          nan     613.8301   -54423.948   -1518.9211
     750       0.0075    292.40199    0.4931569  0.021695156  0.017547819   -2.3611489   -2.3899172          nan    619.21062   -54428.123   -1774.6662
     800        0.008    290.22525   0.51162883 0.0039405095 -0.010260843  -0.02418928 -0.024246445          nan    614.60099   -54422.289   -1684.3617
     850       0.0085    291.07925   0.52842631 -0.0097171222 -0.0071000587   -2.3528369   -2.3741255          nan    616.40949   -54422.848   -1705.3638
     900        0.009    291.66592     0.572513 -0.0070427116 -0.0022931067 -0.024189028 -0.024243158          nan    617.65185   -54422.831   -1877.2573
     950       0.0095    292.22403   0.60456961 -0.00020114767   0.01110411   -2.3793541   -2.3929884          nan    618.83376   -54422.735   -2051.5752
    1000         0.01    293.13572   0.65416354 -0.0016026163   0.02320911 -0.024158842 -0.024233165          nan    620.76442   -54423.376   -2252.5668
    1050       0.0105    291.84075   0.65576224 0.0025683233 0.0036522525   -2.3628956   -2.3485106          nan    618.02209   -54419.336   -2206.6094
    1100        0.011    294.31916   0.69423781 0.0031726848 -0.021004749 -0.024158534 -0.024220852          nan    623.27055   -54423.275   -2254.6858
    1150       0.0115    292.59037   0.73637157 -0.0091413243 0.00042324118    -2.356726   -2.3678779          nan    619.60954   -54418.282   -2425.5116
    1200        0.012    291.78795   0.76108396  0.015905405 0.0085335404 -0.024121606 -0.024198118          nan    617.91028   -54415.233   -2618.4097
    1250       0.0125     292.9478   0.81005185  0.017866505 0.0098017194   -2.3577247   -2.3941096          nan    620.36646   -54416.322   -2792.4002
    1300        0.013    292.48153   0.82594928 -0.0060929594 -0.0048545596 -0.024116086 -0.024188954          nan    619.37906   -54413.932   -2716.6725
    1350       0.0135    295.17579   0.85286263 0.0017445942 -0.0090341867   -2.4939677   -2.3945426          nan    625.08461   -54418.216   -2818.5768
    1400        0.014    290.53936   0.89167291 -0.014476217 -0.0069443721 -0.024102284 -0.024179411          nan    615.26618   -54406.971   -2900.8411
    1450       0.0145    292.75065   0.92671553  0.013393384   0.02562936   -2.3860099   -2.3564449          nan    619.94897   -54410.202   -3219.1276
    1500        0.015    295.11574   0.96989265 0.00048279987  0.023647495 -0.024085732 -0.024164967          nan    624.95743   -54413.727   -3313.4098
    1550       0.0155    293.76374   0.97325795 -0.0038135042 -0.0070834882   -2.4079916   -2.3845856          nan    622.09436    -54409.37   -3207.8699
    1600        0.016    294.51056    1.0075178 -0.0034970989 -0.014774608 -0.024085319  -0.02416425          nan    623.67587   -54409.435   -3297.4871
    1650       0.0165    292.00812      1.04963 0.0043973862 -0.015550221   -2.3597739   -2.3499822          nan    618.37653   -54402.592   -3461.5905
    1700        0.017    293.66816    1.1042522  0.021356514  0.012708469 -0.024039341 -0.024137159          nan    621.89194   -54404.537   -3794.3908
    1750       0.0175    295.88821    1.1298066  0.023811223  0.017676739   -2.4402182   -2.4108261          nan    626.59328   -54407.653   -3904.3153
    1800        0.018    292.39151    1.1296307 -0.027610703  -0.01117653 -0.024050705 -0.024134274          nan    619.18843   -54398.622   -3636.1448
    1850       0.0185    295.10244    1.1739436 -0.014411121 -0.0043922516   -2.4106821   -2.4069453          nan    624.92927   -54402.728   -3850.4673
    1900        0.019    295.40761     1.219937 -0.00089515971 0.0049399382 -0.024024544 -0.024120432          nan    625.57553   -54401.713   -4079.9394
    1950       0.0195    296.05485    1.2531964  0.031737195  0.029788203   -2.4123061   -2.3825493          nan    626.94616   -54401.403   -4382.4061
    2000         0.02    292.29967    1.2707487 -0.0058944393 0.0089658481 -0.024011742 -0.024113114          nan    618.99393   -54391.752    -4246.067
    2050       0.0205    294.86035    1.3004202 -0.007174535 -0.021437563   -2.4115485   -2.3994667          nan    624.41661   -54395.438   -4239.3604
    2100        0.021    293.44196    1.3345252 -0.0049605906 -0.011609398  -0.02399762 -0.024104963          nan    621.41292   -54390.667    -4393.184
    2150       0.0215    295.22509    1.3737005  0.014504862   0.01637316   -2.4166721   -2.3559706          nan    625.18902   -54392.663   -4681.9283
    2200        0.022    292.96239    1.4085809 0.0074934937 -0.00075408847 -0.023972413 -0.024081834          nan    620.39736   -54386.063   -4717.7343
    2250       0.0225    294.40959    1.4376992 -0.0011467685 0.0083742443   -2.3745937   -2.3657595          nan    623.46205   -54387.287   -4816.4224
    2300        0.023    293.07038    1.4550911 -0.0027791209 -0.024742373 -0.023973158 -0.024083979          nan    620.62605   -54382.596   -4758.5653
    2350       0.0235    295.85534    1.5006025 -0.0028203207  0.010589191    -2.383271   -2.3657604          nan    626.52367   -54386.614   -5027.9045
    2400        0.024    295.11232    1.5295571 0.0059744581 0.0089916986  -0.02395524 -0.024061107          nan     624.9502   -54383.137   -5148.4107
    2450       0.0245    292.74008    1.5547426 0.00016947644  0.012676118   -2.3559944   -2.3626106          nan    619.92657   -54376.189    -5225.294
    2500        0.025    295.67897     1.587317 -0.0097979755 -0.0080624517 -0.023947061  -0.02406321          nan    626.15018    -54380.47   -5231.5219
    2550       0.0255    297.38522    1.6332437 0.0032504987 0.00099288502   -2.4215598   -2.4156196          nan    629.76345   -54382.105   -5458.2904
    2600        0.026    294.01209     1.655255 0.0016228928 0.0024881542 -0.023923446 -0.024046297          nan    622.62029   -54372.967     -5531.22
    2650       0.0265    294.67979    1.6938126  0.010332482 0.0082859664    -2.390604   -2.3976071          nan    624.03423   -54372.365   -5708.1034
    2700        0.027    294.07649    1.7164139 0.0024374892 -0.0079460607 -0.023918237 -0.024026278          nan    622.75665   -54369.041   -5703.0179
    2750       0.0275    293.81015    1.7424924 -0.0048615263 -0.010234691   -2.4049519   -2.3929906          nan    622.19263   -54366.411   -5757.9873
    2800        0.028    295.04403    1.7781972 -0.0045430886 0.0073771363 -0.023905218 -0.024022111          nan    624.80559   -54366.935   -5936.7707
    2850       0.0285    297.89426    1.8115929  0.013241987  0.019173276   -2.4388953    -2.402383          nan    630.84142   -54370.863   -6146.6938
    2900        0.029    296.43925    1.8436214 -0.0036568914 -0.0013800285 -0.023889791 -0.024012582          nan    627.76019   -54365.653   -6128.6149
    2950       0.0295    295.08132     1.865593 0.0028872393 -0.0088842828   -2.3903419   -2.3968384          nan    624.88456   -54360.621   -6198.6533
    3000         0.03    295.08014    1.9055053 0.0033590912 0.0083039424 -0.023873051  -0.02400592          nan    624.88204   -54358.445   -6390.5611
    3050       0.0305    297.17628    1.9470665    0.0145198 -0.0031054319   -2.4133213   -2.4099134          nan    629.32097   -54360.668   -6528.2695
    3100        0.031    294.18762    1.9507321 -0.0034821932  0.024349619 -0.023866407 -0.023992351          nan    622.99198   -54352.119   -6571.9986
    3150       0.0315    295.71677     1.976539 -0.014295763 -0.012134808   -2.4142099   -2.4100462          nan    626.23023   -54353.119   -6500.3614
    3200        0.032    292.89954     2.002303 -0.0081446586 -0.014250224  -0.02386058 -0.023987012          nan    620.26427   -54344.891   -6599.6937
    3250       0.0325    297.71025    2.0644485  0.013180905 0.0061924582   -2.4072081   -2.3962657          nan    630.45176   -54352.787   -6946.0729
    3300        0.033    294.51397    2.0987317  0.017123967 0.0090204943  -0.02381809  -0.02396132          nan     623.6831   -54343.695   -7082.9205
    3350       0.0335    296.41433    2.1249553 0.0071975791  0.012577555   -2.4137525   -2.3734942          nan    627.70742   -54345.383   -7149.1015
    3400        0.034    294.08023     2.129698 -0.0086565294 -0.0091912512 -0.023832392 -0.023965779          nan    622.76456   -54338.076   -7039.5006
    3450       0.0345    296.35278     2.167802 -0.0099264412 -0.011254507   -2.4138866   -2.3967437          nan    627.57708   -54340.505   -7155.4037
    3500        0.035     296.3037    2.1966779 -0.0044694068  0.004196366 -0.023819858 -0.023946661          nan    627.47316   -54338.001   -7321.3496
    3550       0.0355     292.5863    2.2325895 -9.5194149e-05 0.0055474869   -2.4053778   -2.3938398          nan    619.60093   -54327.712   -7460.1394
    3600        0.036    294.19156     2.276938 0.0022041966 0.0045045253 -0.023789218 -0.023925227          nan    623.00033    -54328.66   -7612.1558
    3650       0.0365    295.79598    2.2962218 -0.00089305462  0.010886121   -2.4049466    -2.393355          nan    626.39797   -54329.575   -7687.3827
    3700        0.037    295.10785    2.3141643 -0.0078396916  -0.01664387  -0.02379341  -0.02393347          nan    624.94073    -54325.63   -7632.2691
    3750       0.0375    299.13178    2.3619321  0.014862212 -0.0083027059   -2.4264548    -2.406852          nan    633.46208   -54331.633    -7894.972
    3800        0.038    293.92233    2.3873881 0.0021537842 0.0047943261 -0.023767103 -0.023912323          nan     622.4302   -54318.064   -7981.1208
    3850       0.0385    298.29214    2.4327488   0.01868527  0.003180959   -2.4590569    -2.407231          nan    631.68399   -54324.755   -8182.0501
    3900        0.039    295.81544       2.4495 -0.0052220334 0.0047085777 -0.023761627 -0.023897971          nan    626.43917   -54316.916   -8163.2883
    3950       0.0395    292.45747    2.4697416 -0.018023028 -0.0075625798   -2.3550843   -2.3455855          nan    619.32811   -54307.198   -8147.1866
    4000         0.04    295.97516    2.5172906 -0.011824931 0.0017145184 -0.023741461  -0.02390373          nan    626.77741   -54312.013   -8357.2671
    4050       0.0405    297.13109    2.5533511   0.02700028  0.023604248   -2.4092387   -2.3915731          nan    629.22528   -54311.793   -8679.8521
    4100        0.041    296.12474    2.5787315 -0.00045761265 0.0090852511 -0.023736012 -0.023877894          nan    627.09416   -54306.991   -8624.5304
    4150       0.0415    298.31386    2.6026611 -0.0067363818 -0.0075653055   -2.4188868   -2.4311012          nan    631.73001   -54308.907   -8627.8648
    4200        0.042    295.04981    2.6186179 -0.0085341929 -0.019147978 -0.023727114 -0.023880727          nan    624.81783   -54299.274   -8636.4526
    4250       0.0425    293.83896    2.6630836  0.009339615 -0.000365137   -2.3825291    -2.366032          nan    622.25365   -54293.969   -8906.8602
    4300        0.043    295.68321    2.6983258  0.021881199 0.0089042749 -0.023696509 -0.023856293          nan    626.15915   -54295.104   -9097.0377
    4350       0.0435    296.40097    2.7230656 0.0027449346 0.0021123251   -2.3715202   -2.3914591          nan    627.67914   -54293.832   -9093.0762
    4400        0.044    298.01222     2.741027 -0.017317024 -0.012491445 -0.023714755 -0.023860742          nan    631.09123   -54294.433   -9037.3953
    4450       0.0445    296.98536    2.7831446 -0.0084966863 -0.0042468006   -2.3818755   -2.4138634          nan    628.91669   -54289.425   -9234.6705
    4500        0.045    295.95159     2.830101  0.024419645  0.019652214 -0.023665787 -0.023829842          nan    626.72749   -54284.374   -9580.5761
    4550       0.0455    296.05142    2.8580689 0.0050277425   0.02039734   -2.3826289   -2.3858749          nan     626.9389     -54281.7   -9611.6467
    4600        0.046    296.31941    2.8598888 -0.013596443 -0.010875897 -0.023684691 -0.023845901          nan    627.50641   -54279.365   -9451.3882
    4650       0.0465    295.21808    2.8892558 -0.027989948 -0.010567275   -2.3758647   -2.4349233          nan    625.17417   -54274.108   -9502.3286
    4700        0.047    297.50292    2.9295659  0.011578294  0.016217876 -0.023658339 -0.023826474          nan     630.0127   -54276.001   -9857.8736
    4750       0.0475    296.95391    2.9769644  0.016073567   0.01120658   -2.3943118   -2.4451658          nan    628.85007   -54271.861   -10014.148
    4800        0.048    297.30371    2.9984079  0.014555165 0.0076289002 -0.023645898 -0.023810356          nan    629.59083   -54269.602    -10068.64
    4850       0.0485    294.99543    3.0093051 -0.0089829632  -0.01806185   -2.3796252   -2.4090493          nan    624.70266   -54261.689   -9940.8677
    4900        0.049    296.62045    3.0564794 -0.011523041 -0.0049021814  -0.02363831  -0.02379704          nan    628.14392    -54262.08   -10133.514
    4950       0.0495    297.66667    3.0940849  0.012432589 0.0069687485   -2.3725931   -2.4061165          nan    630.35948   -54261.221   -10378.287
    5000         0.05    296.39128    3.1263017  0.014540087  0.013365302 -0.023612544 -0.023776704          nan    627.65861    -54255.43   -10514.024
    5050       0.0505    294.21679    3.1367402 0.0012428374 -0.0031673258   -2.3486937   -2.4076802          nan    623.05376    -54247.71   -10449.386
    5100        0.051    298.79147    3.1668753 0.0065384118 -0.013436903 -0.023621472  -0.02378048          nan    632.74143   -54254.265   -10533.256
    5150       0.0515    296.03931    3.1847797 -0.0059479355  -0.01359329   -2.3874933   -2.3897558          nan    626.91325   -54245.286   -10550.795
    5200        0.052    298.74212    3.2435476  0.016055429  0.014679623 -0.023602376  -0.02376857          nan    632.63691   -54247.839   -10914.275
    5250       0.0525    296.49524    3.2616437 -0.0022423614 0.0007618372   -2.3587162   -2.4585393          nan    627.87877   -54239.876   -10867.211
    5300        0.053    299.00128    3.2884853 0.00054989527  0.032276836 -0.023584247 -0.023761027          nan    633.18573   -54241.949    -11071.04
    5350       0.0535    296.10852    3.3195766 -0.021105813 -0.0050835855   -2.4028962   -2.4203678          nan    627.05982   -54232.586   -10977.957
    5400        0.054    294.93809    3.3342262 -0.014283955  0.010306536 -0.023566211 -0.023743024          nan    624.58124   -54226.847   -11100.829
    5450       0.0545    298.33557    3.3802593 0.0073847282   0.01392973   -2.3872932   -2.4173538          nan    631.77598   -54230.759   -11338.579
    5500        0.055    296.67811    3.4256261 0.0090359352 -0.0033263825 -0.023550919 -0.023731187          nan    628.26601   -54223.921   -11437.785
    5550       0.0555    296.94242    3.4435528 0.0069274462 -0.015962412   -2.4029992   -2.4056306          nan    628.82574   -54221.136   -11448.393
    5600        0.056     296.1017    3.4563257 0.0080788576 -0.012530047 -0.023535397 -0.023725491          nan    627.04537   -54215.995   -11506.248
    5650       0.0565    295.89689    3.4930658  0.009727935 -0.0011080777   -2.3989948    -2.375877          nan    626.61167   -54212.198   -11672.286
    5700        0.057    295.70025    3.5158221  0.007510564 0.0017839695 -0.023522813 -0.023706666          nan    626.19525    -54208.38   -11750.389
    5750       0.0575    299.05864    3.5581409 -0.012161107 0.0064403451   -2.3966014   -2.4080525          nan    633.30719   -54212.067     -11841.4
    5800        0.058    296.76929     3.576258 -0.010483911 -0.0052290724  -0.02351527  -0.02370412          nan    628.45912   -54203.776   -11868.484
    5850       0.0585    297.49786     3.623615 0.00091693469  0.020016783   -2.3718948   -2.4052351          nan    630.00199   -54201.845   -12148.496
    5900        0.059    295.66064    3.6321947 -0.0071676672  0.014322721 -0.023495066 -0.023685223          nan    626.11136   -54194.469   -12131.166
    5950       0.0595     296.4534    3.6835229 -0.00030995624 -0.00065108337   -2.3513635   -2.3667613          nan    627.79016   -54192.639   -12275.206
    6000         0.06    299.37564    3.7112541  0.009277327 -0.021882342 -0.023491806 -0.023684335          nan    633.97849   -54195.275    -12328.83
    6050       0.0605     296.2422    3.7169353 0.0077520961 -0.0067597186     -2.35163   -2.4065799          nan    627.34292   -54185.083   -12393.092
    6100        0.061    298.50468    3.7613866  0.018863483 0.0062456043 -0.023472438 -0.023666207          nan    632.13409   -54186.297   -12621.652
    6150       0.0615    299.84415    3.7964503  0.018591409  0.007058333    -2.399099   -2.4334092          nan    634.97064   -54185.539   -12740.334
    6200        0.062    295.93571    3.7942112  -0.01097592 -0.001784547 -0.023459102 -0.023658845          nan    626.69386   -54173.646   -12604.836
    6250       0.0625    296.92848    3.8462324 -0.00040337174 -0.010301117   -2.3874409   -2.4191966          nan    628.79623   -54172.098   -12785.093
    6300        0.063    295.44753    3.8766593 0.0053759471  0.011999065  -0.02343313 -0.023641221          nan    625.66007   -54165.286   -12980.114
    6350       0.0635    296.21917    3.8871616 -0.0011136233  0.014592211   -2.3819242   -2.3590828          nan    627.29415   -54163.229   -13002.134
    6400        0.064    295.24814    3.9142302 -0.025854231 -0.0062113683 -0.023437258 -0.023641889          nan    625.23783   -54157.478   -12940.549
    6450       0.0645    301.11474    3.9607224 -0.0046069434 0.0089331289   -2.4493588   -2.4357545          nan    637.66135   -54166.159   -13216.828
    6500        0.065    297.71456    3.9962364  0.010276018  0.012280342 -0.023409086 -0.023618818          nan    630.46088   -54155.196   -13395.976
    6550       0.0655    297.35024    4.0166311  0.016059021  0.010647947   -2.3993313   -2.3802289          nan    629.68938   -54150.643   -13477.794
    6600        0.066    295.44455    4.0407596 -0.0021438971 -0.0068731169 -0.023406558 -0.023609571          nan    625.65375   -54142.809   -13439.142
    6650       0.0665     297.1602    4.0505995  0.002812826 -0.017358975   -2.3888703   -2.3727785          nan    629.28692   -54142.621   -13453.511
    6700        0.067    297.11183    4.0888963 -0.013213582 0.0035737948 -0.023390564 -0.023599792          nan     629.1845   -54138.685   -13597.522
    6750       0.0675    298.68402    4.1344816  0.015114587  0.015087114   -2.3832725   -2.3707819          nan    632.51387   -54138.147   -13882.278
    6800        0.068    294.34009    4.1515283 0.00045883255 0.0061805906 -0.023365735 -0.023583114          nan    623.31487   -54125.063   -13860.559
    6850       0.0685    297.95985    4.1809426  0.013051258 -0.022132339    -2.393781   -2.4183789          nan    630.98033   -54128.825   -13906.205
    6900        0.069    299.61325    4.2107547 0.0076280709 -0.013068824 -0.023372782 -0.023584685          nan    634.48168   -54128.403   -14017.713
    6950       0.0695      296.257    4.2366335 -0.011417425 -0.006862729   -2.3767774   -2.3614627          nan    627.37425   -54117.353   -14061.178
    7000         0.07    296.88293    4.2907326  0.018646945  0.017919722 -0.023325405 -0.023555034          nan    628.69976   -54114.693   -14424.331
    7050       0.0705    297.23551    4.3090467  0.016899319  0.029916328   -2.3614347   -2.3806755          nan    629.44642   -54111.436   -14519.541
    7100        0.071    297.29087    4.3128518 -0.0072355814 -0.0058201619 -0.023345885 -0.023569034          nan    629.56366   -54107.537   -14332.654
    7150       0.0715    299.42588    4.3395685 -0.027111361 -0.019331165   -2.3955132   -2.4006997          nan    634.08488   -54108.006    -14310.42
    7200        0.072    297.00416    4.3804163 -0.0033299518 0.0091427714 -0.023322014 -0.023540474          nan    628.95649   -54098.822   -14620.764
    7250       0.0725    297.58624    4.4249618  0.028250089  0.029031644   -2.4022374   -2.3290291          nan    630.18913   -54095.966   -14940.812
    7300        0.073    295.23282    4.4388675 0.0067063567 0.0052490935 -0.023298739 -0.023528358          nan    625.20537    -54086.88   -14836.076
    7350       0.0735    297.18791    4.4717805 -0.015561365 -0.020959176   -2.3871163   -2.3663111          nan     629.3456   -54086.871     -14784.2
    7400        0.074    298.08476    4.4976648  -0.01494196 -0.0015093088 -0.023296701  -0.02353339          nan    631.24484    -54084.61   -14937.378
    7450       0.0745    296.85989     4.523734 0.0075094797  0.013547423    -2.360252    -2.382948          nan    628.65098   -54077.839   -15149.303
    7500        0.075    297.91374    4.5799602  0.023535379  0.015596122   -0.0232645 -0.023495418          nan    630.88267   -54075.861   -15396.972
    7550       0.0755    295.24497    4.5757692 -0.005179723 -0.0065361418   -2.3568956   -2.3362989          nan    625.23111   -54065.993   -15213.511
    7600        0.076    295.22718    4.5874447 -0.020954222 -0.030855106 -0.023273242 -0.023493481          nan    625.19343   -54061.722   -15118.785
    7650       0.0765    295.35736    4.6392156 -0.011203366 -0.00059460269   -2.3548287   -2.3364088          nan     625.4691   -54057.736   -15424.725
    7700        0.077    297.93725    4.6887638  0.027405869  0.020259873 -0.023230304 -0.023470464          nan    630.93246   -54058.906   -15788.099
    7750       0.0775    299.75981    4.7008443   0.02854455  0.012135603    -2.366473   -2.3816488          nan    634.79205   -54058.472   -15805.082
    7800        0.078    296.81925    4.6953541 -0.018002531 -0.020965992 -0.023243134 -0.023490865          nan    628.56492   -54047.925   -15521.285
    7850       0.0785    296.61506    4.7356367 -0.0051797556 -0.030154255   -2.3945674   -2.3468176          nan     628.1325   -54043.153   -15667.675
    7900        0.079    295.36158    4.7815264  0.006807668    0.0158603 -0.023199418 -0.023448456          nan    625.47805   -54036.129   -16013.981
    7950       0.0795    296.36029    4.8191346  0.020426777   0.02297366   -2.3683251   -2.3818071          nan    627.59299    -54033.85    -16208.45
    8000         0.08     298.4629    4.8386751 -0.015747383  0.022129385 -0.023195428 -0.023453741          nan    632.04561   -54033.884    -16150.19
    8050       0.0805    294.27032    4.8364265 -0.033779527 -0.017614116   -2.3421857   -2.3699129          nan    623.16713   -54020.568    -15950.11
    8100        0.081    297.10859    4.8728969 -0.014046416 0.0034464828 -0.023191967 -0.023435346          nan    629.17763   -54022.135   -16207.657
    8150       0.0815    296.01972    4.9177113  0.019175653  0.020940519   -2.3427567   -2.3639865          nan    626.87176   -54015.347   -16526.092
    8200        0.082    299.75576    4.9625904  0.024080762  0.019490978 -0.023165993 -0.023411702          nan    634.78347   -54018.752   -16687.207
    8250       0.0825    294.59393    4.9436758 -0.010062145 -0.044842559   -2.3516422   -2.3447953          nan    623.85242   -54003.289   -16295.904
    8300        0.083    297.42528    4.9875313 -0.001907268 -0.015101291 -0.023162075 -0.023409091          nan    629.84829   -54004.739   -16568.409
    8350       0.0835    294.00153    5.0329033  0.028592019 0.00019501735    -2.348255   -2.3191647          nan    622.59791   -53992.911   -16872.301
    8400        0.084    297.82473    5.0602457  0.045067766 -0.0049421617 -0.023134716 -0.023381043          nan    630.69419   -53996.421   -17001.238
    8450       0.0845    292.73738    5.0567536  -0.03868729 -0.013399979   -2.3329047   -2.2981021          nan    619.92086   -53981.035   -16682.221
    8500        0.085    295.87987    5.1069973 -0.029478747 -0.012412685 -0.023125929 -0.023397396          nan    626.57562   -53983.033   -16883.686
    8550       0.0855    298.44075    5.1610969 -0.021842597  0.041364725   -2.3697134   -2.3724909          nan    631.99872    -53983.77    -17268.73
    8600        0.086     298.5107    5.1898138 0.0086230043  0.037189596 -0.023085171  -0.02335971          nan    632.14683   -53979.233   -17452.088
    8650       0.0865    298.47917    5.1962774 -0.00010521279   0.02595562   -2.3687156   -2.3813961          nan    632.08008   -53974.481   -17407.093
    8700        0.087    295.90147    5.2025678 -0.018676076  -0.01421968 -0.023097451 -0.023357502          nan    626.62135   -53964.297    -17232.24
    8750       0.0875    295.24953    5.2343731 -0.0002860408 -0.029727937   -2.3555013   -2.3420832          nan    625.24077   -53958.179   -17347.864
    8800        0.088    298.13581    5.2735828  0.023794093 0.0080743011 -0.023071879 -0.023337907          nan    631.35295    -53959.51   -17684.837
    8850       0.0885    292.93953    5.2990841  0.022964403 -0.029820855   -2.3282921   -2.3381547          nan    620.34895    -53943.71   -17640.759
    8900        0.089    297.34605    5.3519007  0.025613507 -0.009516443 -0.023048756  -0.02332197          nan     629.6805   -53948.219   -17893.326
    8950       0.0895    297.36432    5.3669866 0.0070894185 -0.014186361   -2.3518778   -2.3730058          nan    629.71918   -53943.423   -17866.299
    9000         0.09    295.70013    5.3694746 -0.011630413 -0.0073867954 -0.023042519 -0.023327691          nan    626.19498    -53935.06   -17834.858
    9050       0.0905    296.47864    5.4324487 -0.018641723  0.017164065   -2.3428978   -2.3532008          nan     627.8436   -53931.802   -18103.237
    9100        0.091    295.90843    5.4487576 -0.0044301163  0.036501753 -0.023001182 -0.023306924          nan    626.63609   -53925.677   -18269.431
    9150       0.0915    297.90314    5.4753008 -0.0080609052  0.029686421   -2.3715551   -2.3446122          nan    630.86022   -53924.989   -18323.088
    9200        0.092    295.70213    5.4852987 -0.040270003 -0.0067980913 -0.023001777  -0.02330426          nan    626.19921   -53915.389   -18127.435
    9250       0.0925    297.80811    5.5286935 0.00028494539  0.016097823   -2.3719107   -2.3766785          nan    630.65899   -53914.902   -18483.588
    9300        0.093    296.75797    5.5618332  0.041499899 0.0024054051 -0.022972983 -0.023259812          nan    628.43514   -53907.669   -18685.795
    9350       0.0935    296.68545    5.5779423 0.0085457243 -0.010941373   -2.3529518   -2.3536676          nan    628.28156   -53902.501   -18585.155
    9400        0.094    297.11381    5.6079004  0.002997622  -0.02527606 -0.022967614 -0.023274183          nan    629.18868   -53898.362    -18618.74
    9450       0.0945    297.57715    5.6341856   0.02745049 -0.015386189   -2.3796094   -2.3248342          nan    630.16988   -53894.296   -18820.833
    9500        0.095    294.34125    5.6608142 0.0028836559 -0.0012738282 -0.022936841 -0.023248721          nan    623.31734   -53882.377   -18874.747
    9550       0.0955    298.29909    5.7080983  0.012587977  0.031498384   -2.3652681   -2.3796692          nan    631.69873   -53885.648   -19173.949
    9600        0.096    294.83053    5.7104283 -0.023247364 -0.0056091269  -0.02293621 -0.023252232          nan    624.35346   -53873.179   -18938.573
    9650       0.0965    298.75563    5.7332801 -0.021188726 -0.0028509179   -2.3568158   -2.3827181          nan    632.66553   -53876.344   -19030.802
    9700        0.097    295.14157    5.7721327 -0.0065719478 0.0037197252 -0.022906545 -0.023229335          nan    625.01214   -53863.541   -19230.935
    9750       0.0975    294.82665    5.7975019  0.010696126  0.021789927   -2.3389965   -2.3544792          nan    624.34524   -53857.701   -19433.293
    9800        0.098    296.23359    5.8274128  0.013428568 9.6427055e-05 -0.022885871 -0.023204206          nan    627.32468   -53855.481   -19469.793
    9850       0.0985    297.79477    5.8479887 -0.0046679173 -0.001516076   -2.3418671   -2.3768454          nan    630.63075   -53853.562   -19472.682
    9900        0.099    297.69253    5.8828007   0.01438731 -0.024001789 -0.022878069 -0.023201594          nan    630.41423   -53848.091   -19577.287
    9950       0.0995    296.20865     5.900658 -0.0029081282  0.012432596   -2.3578314   -2.3565293          nan    627.27187   -53839.679   -19700.608
   10000          0.1    293.70181    5.9285664 0.0098217001 -0.0053943595 -0.022846027 -0.023174936          nan    621.96321   -53829.081   -19776.646
   10050       0.1005    297.14653    5.9619967  0.013454274  0.004787322   -2.3138225   -2.3813885          nan    629.25798   -53831.059   -19934.128
   10100        0.101    297.32871    5.9718787 -0.011929532  0.018551073 -0.022854763 -0.023186615          nan    629.64377    -53826.11   -19928.334
   10150       0.1015    297.17147    5.9899677 -0.018030174 -0.023123602   -2.3377527   -2.3853488          nan    629.31081   -53820.425    -19829.38
   10200        0.102    294.70957    6.0314065 -0.022271119  0.016502945  -0.02281928 -0.023159799          nan    624.09731   -53809.847   -20085.461
   10250       0.1025    294.30694    6.0741593  0.021649799  0.023418621   -2.3032559   -2.3489081          nan    623.24467   -53803.597   -20397.426
   10300        0.103    295.25607    6.0900586 -0.00027505274  0.023119613 -0.022795182 -0.023145455          nan    625.25461   -53800.198   -20376.344
   10350       0.1035     295.9093     6.102598 -0.022230103 -0.028384264   -2.3166634    -2.339644          nan    626.63793   -53796.145   -20173.279
   10400        0.104    296.15739    6.1182283 -0.0055298298 -0.023080046  -0.02280109  -0.02314094          nan    627.16331   -53791.216   -20298.728
   10450       0.1045    293.64272    6.1477027  0.016571171 -0.0021962383   -2.3419634   -2.3358108          nan    621.83808   -53780.424   -20540.259
   10500        0.105    296.46591    6.1897252  0.024890761  0.020651561 -0.022751351 -0.023100148          nan    627.81666   -53780.909   -20784.225
   10550       0.1055    298.94856    6.2408315  0.011150401 -0.0021970802   -2.3614234   -2.3993348          nan    633.07408   -53780.642   -20832.616
   10600        0.106    294.70129    6.2366857 -0.0049544845 -0.020751226 -0.022748045 -0.023096782          nan    624.07977   -53766.094   -20703.267
   10650       0.1065    294.74796    6.2606475 0.0063064355 -0.0021506208   -2.3261438   -2.3337892          nan    624.17861   -53760.626   -20882.678
   10700        0.107    295.95184     6.302547 0.0039702679  0.015308117 -0.022729047 -0.023082263          nan    626.72803   -53757.585   -21072.751
   10750       0.1075    294.57764    6.3182158 -0.0065502435 0.0048235302   -2.3100511   -2.3524592          nan    623.81793   -53749.058   -21054.964
   10800        0.108    296.06438    6.3408207 -0.018530199  0.006534892 -0.022708338 -0.023078614          nan    626.96634   -53746.571   -21096.085
   10850       0.1085    294.98382    6.3573435 -0.0048688086 -0.010557674   -2.3073199   -2.3287486          nan    624.67807   -53738.639   -21139.724
   10900        0.109    293.17435    6.3869848 0.0018603218 0.0026040913 -0.022675711 -0.023039163          nan    620.84622   -53729.148   -21304.831
   10950       0.1095    294.92706    6.4202372 0.0068776487  0.031606613   -2.3191929   -2.3414344          nan    624.55788   -53727.166   -21529.071
   11000         0.11    298.03156    6.4600403 0.0022408883  0.017282971 -0.022672258 -0.023044993          nan    631.13218   -53728.021   -21598.547
   11050       0.1105    293.65957    6.4463444 -0.028822527 -0.039536196   -2.3250766   -2.2892596          nan    621.87374   -53713.035   -21259.952
   11100        0.111    297.60786    6.4931912 0.0014402268 0.0078872242 -0.022656278 -0.023029252          nan    630.23493   -53715.649   -21675.062
   11150       0.1115     292.1841    6.5226405  0.027741983 -0.00048960981   -2.2947429     -2.27729          nan     618.7492   -53698.368   -21832.976
   11200        0.112    295.30704    6.5647981  0.032673841  0.003857523  -0.02263005 -0.022987862          nan    625.36255   -53699.178   -22004.432
   11250       0.1125     295.8276    6.5728223 -0.013933532 -0.019142683    -2.302527   -2.3813829          nan    626.46493   -53694.459   -21799.154
   11300        0.113    298.56972     6.607277 -0.013939096 -0.0078952252 -0.022631918 -0.023008819          nan    632.27183   -53694.415   -21951.476
   11350       0.1135    295.08413    6.6244538 0.0014991882 0.0049226708   -2.3333865   -2.3589856          nan    624.89051   -53681.172   -22102.919
   11400        0.114    294.29485    6.6565077  0.026224169  0.029367882 -0.022569034 -0.022946529          nan    623.21907   -53673.625   -22373.666
   11450       0.1145     294.6111    6.6880383  0.010750592  0.011512308    -2.315807   -2.3203878          nan    623.88879   -53668.375   -22367.671
   11500        0.115    293.01377    6.7055881 -0.027346355  -0.02000223 -0.022568465 -0.022963074          nan    620.50617   -53659.043   -22194.132
   11550       0.1155    293.45784    6.7183818  -0.02406602 -0.0085102465   -2.3143423   -2.3427522          nan    621.44656   -53654.022   -22286.019
   11600        0.116    292.90485    6.7239543 0.0010716081 -0.0072970526 -0.022538157 -0.022932161          nan    620.27552   -53646.896   -22392.429
   11650       0.1165    295.95781    6.7746584  0.017655898  0.050733294   -2.3328831   -2.3453142          nan    626.74067   -53647.382   -22810.159
   11700        0.117    295.99702    6.7963903  0.010581478 -0.0062817737 -0.022525478 -0.022919796          nan    626.82369   -53641.462   -22668.967
   11750       0.1175     295.0483    6.7859841 -0.013680211 -0.025550425   -2.3358601    -2.300998          nan    624.81462   -53633.431   -22489.178
   11800        0.118    295.65766    6.8374182 -0.0098231395  0.010299903 -0.022508365 -0.022909303          nan    626.10506   -53628.679   -22792.983
   11850       0.1185    293.62365    6.8679102  0.022835108   0.01948882   -2.3318021   -2.3369482          nan    621.79769   -53618.294   -23034.114
   11900        0.119    294.80481    6.9009367  0.024451263  0.019218656 -0.022481574 -0.022880173          nan      624.299     -53614.7   -23148.689
   11950       0.1195    293.09271    6.9262253 -0.021132787 -0.018929183   -2.2914609   -2.3076805          nan    620.67334   -53604.948   -22953.878
   12000         0.12    294.03772    6.9283213 -0.004529614 -0.036005034   -0.0224796 -0.022880133          nan    622.67455   -53600.807   -22959.289
   12050       0.1205    291.39479     6.960574 -0.0046980808  0.003750209   -2.2636101   -2.2875846          nan    617.07769   -53589.075   -23198.754
   12100        0.121    295.92479    7.0184255  0.042762583  0.021102177 -0.022440422 -0.022836708          nan    626.67073   -53592.472   -23607.634
   12150       0.1215    292.10076    7.0155204 -0.0031250382  -0.01901404   -2.2629235   -2.2836573          nan    618.57271   -53578.193   -23311.271
   12200        0.122    293.53424    7.0206723 -0.027902647 -0.019654221 -0.022430483 -0.022847865          nan    621.60834   -53575.018   -23243.718
   12250       0.1225    294.44229    7.0622081   0.01073154 0.0083754594   -2.2982134   -2.3061163          nan    623.53129   -53570.718   -23604.384
   12300        0.123    293.96768    7.1078555   0.01798432    0.0170461 -0.022392184 -0.022805974          nan    622.52623   -53563.448    -23809.62
   12350       0.1235    292.88863    7.1150359 -0.019533758  0.014375388    -2.292461    -2.276347          nan    620.24117    -53554.88   -23699.592
   12400        0.124    294.20346    7.1309263 -0.015636227 -0.0025125165 -0.022379491 -0.022801691          nan    623.02554   -53551.373   -23709.258
   12450       0.1245    292.81988    7.1556961 0.0063209499 0.0055425733   -2.3133739   -2.3047126          nan    620.09556   -53542.128   -23891.865
   12500        0.125    293.20825    7.1630936 -0.011996753  0.025672626 -0.022349116 -0.022783687          nan    620.91801   -53536.624   -23922.565
   12550       0.1255    290.69748     7.187747 -0.011676988  -0.01261911    -2.281301   -2.2722518          nan    615.60102   -53524.981    -23878.17
   12600        0.126    294.92354    7.2474458  0.022873715 0.0035391865 -0.022333625 -0.022761264          nan    624.55042   -53527.538   -24246.196
   12650       0.1265    294.09359    7.2547531 0.0037197991  -0.01646258   -2.3405734     -2.29933          nan    622.79287   -53519.374   -24140.034
   12700        0.127    293.55748    7.2629515 0.0015966151 -0.0037850923 -0.022313045 -0.022753199          nan    621.65755   -53511.832   -24202.544
   12750       0.1275    290.93946     7.268599 0.00064639498 -0.0066612663   -2.2880738   -2.2816041          nan    616.11347   -53499.868   -24208.614
   12800        0.128    291.97971    7.3120246  0.022108149 0.0011096719 -0.022288621 -0.022716928          nan    618.31638   -53495.633   -24450.808
   12850       0.1285    294.17245    7.3443981 0.0044996831 0.0017756814   -2.3212405   -2.2756075          nan    622.95986   -53493.804   -24502.245
   12900        0.129    292.61236    7.3589548 -0.012854203 -0.016363885 -0.022278021 -0.022714434          nan    619.65612   -53484.003   -24432.456
   12950       0.1295    291.85087      7.38729 -0.021821734 0.0054285778   -2.2750381   -2.2721105          nan    618.04353   -53475.872   -24569.656
   13000         0.13    290.78381     7.415021  0.014886876  0.011221629 -0.022229458 -0.022676964          nan    615.78386   -53467.079   -24803.765
   13050       0.1305    292.50507    7.4355091   0.01727049 0.0095865984   -2.3111721   -2.2907995          nan    619.42891    -53464.17   -24874.554
   13100        0.131    293.28278    7.4481658 -0.023400144   0.01208596 -0.022221266 -0.022688313          nan    621.07585   -53459.255   -24789.505
   13150       0.1315    292.64862    7.4641715 -0.014012126 -0.021061419   -2.2818452   -2.2545522          nan    619.73289    -53451.32    -24763.66
   13200        0.132    293.11152     7.515565  0.010702505  0.019076659 -0.022203184 -0.022657887          nan    620.71317   -53445.684   -25151.147
   13250       0.1325    293.59668    7.5203109  0.013084814  0.015141646   -2.3286119    -2.267915          nan    621.74057   -53440.078   -25161.791
   13300        0.133    291.61298    7.4890029 -0.027727761 -0.015057517 -0.022184286 -0.022645187          nan    617.53976   -53429.267   -24820.725
   13350       0.1335    292.88561    7.5406092  0.012420341 -0.0038895011   -2.3192726   -2.2968935          nan    620.23475   -53425.331     -25163.8
   13400        0.134     291.4742    7.5803297  0.012275588  0.017438217 -0.022140407 -0.022603201          nan    617.24586   -53415.665   -25366.812
   13450       0.1345    291.69644    7.5833709 0.0063934578  0.010402262   -2.2873574    -2.282349          nan    617.71649   -53409.451   -25333.889
   13500        0.135    289.26605    7.5846537 -0.020390557 -0.024038941 -0.022135576 -0.022595485          nan    612.56974   -53397.601   -25134.081
   13550       0.1355    291.65881    7.6144155  0.005857082 -0.0037508807   -2.2799781    -2.290481          nan    617.63681   -53395.957   -25388.406
   13600        0.136    292.61288    7.6492078   0.02030207 0.0092161816 -0.022112142 -0.022565728          nan    619.65722   -53391.237   -25595.753
   13650       0.1365    291.00834    7.6650203 0.0086863484 -0.0016186754   -2.2548046     -2.28123          nan    616.25932   -53381.083   -25573.627
   13700        0.137    292.44039    7.6863264 -0.016819541 -0.021292194 -0.022096235 -0.022571601          nan    619.29193   -53377.338   -25494.049
   13750       0.1375    288.91348     7.681288 -0.012049251  -0.01196392   -2.2324899   -2.2379411          nan     611.8231   -53363.093   -25524.249
   13800        0.138    291.04478    7.7100765  0.025116864  0.020491933 -0.022043455 -0.022518463          nan     616.3365   -53360.812   -25852.284
   13850       0.1385    291.51861    7.7382622  0.011682168  0.025944087    -2.253282   -2.2840733          nan     617.3399   -53355.004   -25919.628
   13900        0.139    290.29483    7.7460818 -0.023024333  -0.01759794 -0.022037491 -0.022523764          nan    614.74834   -53345.566   -25684.865
   13950       0.1395    291.97503    7.7858493 -0.025838676 0.0052134879   -2.2825806   -2.2808568          nan    618.30647   -53342.249    -25884.08
   14000         0.14    291.32814    7.8244783  0.019659344  0.015252095 -0.022000404 -0.022493048          nan    616.93655   -53333.989   -26197.966
   14050       0.1405    292.00872    7.8645431  0.015198608  0.029408772   -2.2647699   -2.2848041          nan    618.37779   -53328.493   -26363.835
   14100        0.141    289.43427    7.8265102 -0.013088092 -0.016648748 -0.021988277 -0.022481624          nan    612.92597   -53316.123   -25989.245
   14150       0.1415    289.16031    7.8212713 -0.026198965 -0.032965605   -2.2417603   -2.2637191          nan     612.3458   -53308.634   -25873.689
   14200        0.142    289.88201    7.8584449  0.022851299  0.019017101 -0.021949769 -0.022443301          nan    613.87413   -53303.226   -26334.378
   14250       0.1425    291.53787    7.9204572  0.032809204  0.033112633   -2.2737722   -2.2797121          nan     617.3807   -53299.759   -26621.263
   14300        0.143    290.38301    7.8930614 -0.0015763817 -0.020272017 -0.021938231 -0.022439617          nan    614.93509    -53290.33   -26237.377
   14350       0.1435    289.45291    7.9110067 -0.032753643 -0.026507029    -2.255392   -2.2658885          nan    612.96545   -53281.372   -26172.487
   14400        0.144    290.65541    7.9386583   0.01872612 0.0086795685 -0.021914542 -0.022408912          nan    615.51193   -53276.903   -26553.547
   14450       0.1445    289.27663    7.9438435  0.020359268   0.02783822   -2.2282066   -2.2726705          nan    612.59214   -53266.958   -26640.137
   14500        0.145    288.24473    7.9253352 -0.0019551395 -0.005332819 -0.021883754 -0.022387832          nan    610.40691   -53257.767   -26393.491
   14550       0.1455     288.1228     7.937292 -0.0071436632 -0.023712615   -2.2346127   -2.2124842          nan    610.14871   -53250.482   -26354.786
   14600        0.146    289.73322    7.9963718 -0.008315551  0.011616432 -0.021865565 -0.022364052          nan    613.55905   -53246.832   -26665.575
   14650       0.1465    288.35812    8.0219524  0.018720144 -0.0023470001   -2.2318948   -2.2589758          nan    610.64703   -53236.819   -26794.419
   14700        0.147    289.19428    8.0323342 0.0023991844 -0.0010004881 -0.021830944 -0.022353196          nan    612.41775   -53231.497    -26779.11
   14750       0.1475    288.15752    8.0245376 -0.019278776 -0.0085517223   -2.2472134   -2.2482335          nan    610.22223   -53222.191    -26655.69
   14800        0.148    287.69309    8.0220678 -0.029001169  0.021506594 -0.021806088 -0.022324334          nan    609.23872   -53214.111   -26715.244
   14850       0.1485    288.11223    8.0699743  0.024772955  0.012796251   -2.2663763   -2.2321886          nan    610.12632   -53207.863   -27025.145
   14900        0.149    287.66028    8.0699985  0.013724475 -0.00075351667 -0.021774406 -0.022296785          nan    609.16925    -53199.75   -26943.231
   14950       0.1495    286.49932    8.0552713 -0.026078246 -0.027165977    -2.230716   -2.2380099          nan    606.71071   -53190.128   -26673.424
   15000         0.15    288.36511    8.0436169 -0.0055405225 -0.023123398 -0.021753601 -0.022268382          nan    610.66184   -53186.944    -26716.51
   15050       0.1505    287.84796    8.0221898  0.032074638  0.046722049   -2.1999084   -2.2587038          nan    609.56668   -53178.717   -27003.288
   15100        0.151    289.86503     8.009349  0.022580725  0.013022977 -0.021728947  -0.02223735          nan    613.83818   -53175.875   -26816.509
   15150       0.1515    289.78785    7.9487241 -0.018514708 -0.031619197   -2.2412896   -2.2370042          nan    613.67473   -53168.607   -26328.634
   15200        0.152    290.31853    7.8667592 -0.016873746 -0.033512904 -0.021734779 -0.022233826          nan    614.79854   -53162.699   -26054.575
   15250       0.1525    288.52284    7.7777716  0.018989735 0.0065869689   -2.2172959   -2.2199656          nan    610.99587   -53151.958   -26011.161
   15300        0.153    292.59979    7.6874063  0.040995206   0.05111153 -0.021684285 -0.022161518          nan    619.62949   -53153.718    -25931.71
   15350       0.1535    293.44753    7.5105271  -0.01715212  0.010782774   -2.2800304   -2.2757655          nan    621.42472   -53148.786   -25013.859
   15400        0.154    300.38177    7.3148832 -0.023705618  -0.03372703 -0.021715298 -0.022187592          nan    636.10915   -53156.901   -24191.502
   15450       0.1545    303.37336     7.099078 -0.005157063 -0.022685555   -2.3706659    -2.351796          nan    642.44434   -53156.917   -23570.784
   15500        0.155    310.56808    6.8335628  0.028671026  0.061517304 -0.021700679 -0.022138535          nan    657.68038   -53166.129    -23079.17
   15550       0.1555    319.07102    6.4622776 -0.017969937  0.074104983    -2.526374   -2.4596885          nan    675.68679   -53178.592   -21728.042
   15600        0.156    328.59338    6.0768926 -0.054305874 0.0032310691  -0.02180691  -0.02219519          nan    695.85201   -53193.752   -20086.059
   15650       0.1565    339.98605    5.7091227 -0.039253418 -0.011629085   -2.7098747   -2.5900933          nan     719.9779   -53213.419   -18860.801
   15700        0.157     349.9769    5.3833154  0.014535402  0.024428597   -0.0218507 -0.022201119          nan    741.13522   -53230.814   -18074.265
   15750       0.1575    356.34055    5.0262823  0.046377412  0.025275241   -2.8882979   -2.7108197          nan    754.61132   -53241.297   -16993.116
   15800        0.158    363.93805    4.6373933  0.051548958 -0.025566959 -0.021927761 -0.022221428          nan    770.70031   -53255.135   -15544.584
   15850       0.1585    369.39373    4.2720394  0.011057645  -0.04033417   -2.9999341   -2.8339837          nan    782.25363   -53265.144   -14142.543
   15900        0.159    376.31002    3.9450294  0.025588824 -0.020515676 -0.022029344 -0.022287423          nan    796.90004   -53278.787   -13167.008
   15950       0.1595    377.48704    3.6586387  0.055163305 -0.028075241   -3.0814802    -2.870449          nan     799.3926   -53280.681   -12285.756
   16000         0.16    376.28538    3.3967325  0.017835897  0.040873249 -0.022084636 -0.022323655          nan    796.84787   -53277.693   -11518.139
   16050       0.1605    381.43001    3.1451302  0.059913572  0.011176456   -3.0667138    -2.975741          nan     807.7425   -53288.357   -10720.734
   16100        0.161    383.02458    2.9185524 -0.015108025 -0.013841913 -0.022197118 -0.022417664          nan    811.11925    -53291.71   -9632.0082
   16150       0.1615    382.24622    2.6707841 -0.042510109 -5.8002395e-05   -3.1374017   -2.9857605          nan    809.47096   -53290.255     -8760.72
   16200        0.162    384.28542    2.5132043 0.0072497602  0.064284504 -0.022257122 -0.022457738          nan     813.7893   -53295.055   -8615.7952
   16250       0.1625    387.55178    2.3624185  0.017334212   0.05188648   -3.1741656    -3.012902          nan    820.70637   -53302.835   -8105.4639
   16300        0.163    391.04332    2.2023952 -0.0029853183  0.021283681 -0.022369883  -0.02254448          nan    828.10031   -53311.338   -7402.3119
   16350       0.1635    393.07265    2.0627596 0.00033388423 -0.033342202   -3.1602634   -3.1326902          nan    832.39776   -53316.903   -6765.8377
   16400        0.164    392.99985     1.947482   0.01643309 -0.024855808 -0.022466334 -0.022598738          nan    832.24358   -53318.177   -6463.5308
   16450       0.1645    397.69265    1.8597323  0.044083245  0.021783537   -3.2524457   -3.1118752          nan    842.18138   -53329.736   -6418.6635
   16500        0.165    399.56344    1.8021243  0.023002338 -0.0032643613 -0.022542647 -0.022650474          nan    846.14309   -53335.512   -6072.8742
   16550       0.1655    398.63934    1.7065534 -0.048249614 0.0018889645   -3.2576359   -3.1537374          nan    844.18615   -53335.387   -5533.9758
   16600        0.166    401.63186    1.6554372  0.017345694  0.015262818 -0.022585531 -0.022694669          nan    850.52331   -53343.667   -5626.8189
   16650       0.1665    406.61402    1.6071214  0.057283454   0.04180605    -3.319429   -3.2121759          nan    861.07388   -53356.368   -5687.3695
   16700        0.167    404.39975    1.5220623 -0.0071849052 -0.018915642 -0.022654487 -0.022763978          nan    856.38479   -53353.953   -4986.5392
   16750       0.1675    407.19179    1.5265762 -0.065372073 -0.0070952308   -3.3278069   -3.2831164          nan    862.29742   -53362.136   -4847.0295
   16800        0.168    405.66592    1.5141962 -0.005861296  0.011501671 -0.022673413 -0.022780057          nan    859.06612   -53361.272   -5066.1219
   16850       0.1685    407.07406    1.5114259   0.02089229   0.05174981   -3.3023477   -3.2874807          nan     862.0481   -53366.675   -5280.2265
   16900        0.169    406.63752    1.4741978 -0.015798871  0.017131132 -0.022673114 -0.022786016          nan    861.12365   -53368.237   -4918.4335
   16950       0.1695    410.66948    1.4646052 -0.020337987  0.017340096   -3.2907134    -3.306041          nan    869.66201   -53379.317   -4872.0243
   17000         0.17    408.79544    1.4546807 -0.038271172 -0.001544997 -0.022693975 -0.022836957          nan    865.69342   -53377.932    -4716.215
   17050       0.1705    411.86404    1.4204592   0.04240294 0.0035351829   -3.3762474   -3.2877348          nan    872.19168   -53387.061   -4887.9911
   17100        0.171    411.47291    1.3799741  0.039945831 -0.014297978 -0.022725478 -0.022821867          nan     871.3634   -53388.914   -4685.4067
   17150       0.1715     415.6465    1.4015654  0.019159239 -0.010833587   -3.4091318   -3.3503271          nan    880.20169   -53400.492   -4699.6367
   17200        0.172    411.20364    1.4250032 0.0026900974 -0.025898047 -0.022743005 -0.022850622          nan    870.79318    -53393.82    -4672.651
   17250       0.1725    413.48119    1.4266051 2.5208323e-05  0.013223685    -3.385211   -3.3571774          nan    875.61629   -53401.357   -4799.5132
   17300        0.173    415.44619    1.4285964 -0.012139911   0.07535237 -0.022733192 -0.022871143          nan    879.77749   -53408.288   -4972.6961
   17350       0.1735    415.37694     1.413188 -0.0013389531  0.018443787   -3.3944989    -3.407571          nan    879.63085   -53410.986   -4767.6428
   17400        0.174    414.08099    1.3238422 0.0067634716 -0.024715985 -0.022789531 -0.022888983          nan    876.88646   -53411.101   -4352.9657
   17450       0.1745    412.73679    1.3070466  -0.02834393 -0.016673837    -3.380332   -3.3380172          nan    874.03989   -53411.138   -4206.7626
   17500        0.175    415.30307    1.3450921  0.018904004 -0.0022488516 -0.022764296 -0.022881108          nan    879.47443   -53419.486   -4539.1576
   17550       0.1755    418.03187    1.3752953  0.011006198  0.025073468   -3.4115062   -3.4219681          nan    885.25312   -53428.211   -4704.5832
   17600        0.176    414.28934    1.3249708 -0.015053991  0.041946465  -0.02277639 -0.022892767          nan    877.32768   -53423.228   -4506.2108
   17650       0.1765    418.03552    1.3754292 -0.025543129  0.035982388   -3.4274593   -3.4099549          nan    885.26084   -53434.165   -4619.5616
   17700        0.177     415.8377    1.3587249 0.0068948774  0.010339238 -0.022811097  -0.02289744          nan    880.60658   -53432.514     -4586.53
   17750       0.1775    416.87175    1.3043095  0.023693682 -0.030539399   -3.4178281   -3.3902495          nan    882.79637   -53437.644   -4324.8793
   17800        0.178    413.89216     1.291808 0.0075090475 -0.038840188 -0.022825803  -0.02291578          nan    876.48657   -53434.335   -4201.5895
   17850       0.1785    416.72334    1.2762378  0.069559726 -0.00091387329   -3.3957503   -3.4241612          nan    882.48209   -53443.399   -4482.9455
   17900        0.179    418.12239    1.2561465  0.033608055   -0.0038504 -0.022843288 -0.022953577          nan     885.4448   -53449.512   -4286.3473
   17950       0.1795    412.65072    1.2076882 -0.015397513 -0.055657145   -3.3824404   -3.3152686          nan    873.85763   -53441.036   -3788.7784
   18000         0.18    413.82535    1.2302221 -0.028155016 -0.010380558 -0.022869333 -0.022974648          nan    876.34511     -53446.6   -3972.2885
   18050       0.1805    415.34012    1.2437416 0.0036961712  0.056498841   -3.3814236   -3.4343599          nan    879.55287   -53452.829   -4346.4552
   18100        0.181     417.5726    1.2663258 0.00031224206  0.043030606 -0.022855836 -0.022961654          nan    884.28053   -53460.628   -4365.5622
   18150       0.1815    411.88227    1.2645511 -0.027130796 -0.044124428   -3.3513411   -3.3294157          nan     872.2303   -53451.581   -3977.6529
   18200        0.182    416.98469    1.2953278  0.034722518  0.049671954 -0.022844631 -0.022957739          nan    883.03554   -53465.389   -4599.0741
   18250       0.1825    413.83739    1.2613692  0.018901034  0.050028486   -3.3976101   -3.3775911          nan     876.3706   -53461.831   -4434.3291
   18300        0.183    417.55101    1.2296757 -0.022344408 -0.025781022 -0.022903675 -0.023002025          nan     884.2348   -53472.782    -3938.501
   18350       0.1835    415.04557    1.1742498 -0.012003267  -0.04202506   -3.3836027   -3.3767535          nan    878.92911   -53470.543   -3734.0717
   18400        0.184    411.66665    1.2083913 -0.0043950042  0.011989088   -0.0229064  -0.02300125          nan    871.77368   -53466.462   -4053.2846
   18450       0.1845    416.80055    1.2153247  0.023400226  0.048485831   -3.4494207   -3.4295679          nan    882.64558   -53480.453   -4290.7024
   18500        0.185     412.8057     1.215712 -0.032529224 -0.0080820679 -0.022908271 -0.023024181          nan    874.18582   -53475.122   -3917.0023
   18550       0.1855    416.73391    1.2150063  0.012350915 -0.038932225   -3.3984521    -3.397754          nan    882.50446   -53486.508   -3961.4165
   18600        0.186    413.19957    1.2222866  0.010146899 -0.028892302 -0.022914011 -0.023012041          nan     875.0199   -53482.093   -4011.8039
   18650       0.1865    412.71035    1.2645499  0.036487945  0.046083834   -3.3754956   -3.3361433          nan    873.98389   -53484.122   -4490.4057
   18700        0.187     412.9248    1.2237834  0.023251994 0.00074515253 -0.022914498 -0.023009612          nan    874.43802   -53487.641   -4159.2686
   18750       0.1875    416.64845    1.1820588 -0.028928542 0.0036902952   -3.4625271   -3.4431399          nan    882.32349   -53498.627   -3856.0684
   18800        0.188    412.10646    1.1729937 -0.082810006  0.019922057 -0.022941274 -0.023071706          nan    872.70506   -53492.078   -3700.3526
   18850       0.1885    412.66012     1.209767 -0.012608752  0.032322633   -3.4316758   -3.3787835          nan    873.87753   -53496.361   -4098.2697
   18900        0.189    413.23056    1.2489481  0.032566484  0.039609264 -0.022907829 -0.023021568          nan    875.08552   -53500.619   -4403.7462
   18950       0.1895    412.98537    1.2329792  0.033395257  0.005880248   -3.4319029   -3.3798733          nan    874.56629   -53503.143    -4240.849
   19000         0.19    410.87349    1.2183578 0.0097882894 -0.071825932 -0.022953091 -0.023044179          nan    870.09403   -53501.618   -3854.4007
   19050       0.1905    412.86009    1.2299516  0.034236549 -0.058206995   -3.4275918   -3.3665272          nan    874.30099   -53508.831   -4019.9372
   19100        0.191    412.05642    1.2359775  0.047758375 -0.010296066 -0.022920934 -0.023027948          nan    872.59909   -53510.186   -4244.7993
   19150       0.1915    408.84981    1.2473024 0.0090387394   0.05732094   -3.3196961   -3.3220963          nan    865.80855   -53506.365   -4378.8737
   19200        0.192    411.45511    1.2649385 -0.00020249289  0.008627884 -0.022946872 -0.023043652          nan     871.3257   -53514.871   -4244.5461
   19250       0.1925    409.50181    1.2425237 -0.0021758851 -0.022742586   -3.3314317   -3.3676021          nan    867.18926   -53513.669    -4058.684
   19300        0.193    409.68344    1.2622841 -0.028557543 -0.020079886 -0.022965929 -0.023088152          nan     867.5739   -53516.985   -4045.4888
   19350       0.1935    407.70952    1.2682982 -0.014618188 0.0098163216   -3.3498555   -3.3197638          nan     863.3938   -53515.698   -4211.6546
   19400        0.194    407.39248    1.2615625  0.041215451  0.038150602 -0.022941509 -0.023037197          nan     862.7224    -53517.89   -4469.7617
   19450       0.1945    408.35015    1.2326108  0.032621389  0.030391502   -3.3510328   -3.3167513          nan    864.75043   -53522.831   -4318.7455
   19500        0.195    407.92211    1.2065539 -0.022165338 -0.032424793 -0.022989992 -0.023089464          nan    863.84399   -53524.819   -3839.8791
   19550       0.1955    408.80895    1.1814437 -0.033884883 -0.014811411   -3.3285445   -3.3515907          nan    865.72203   -53529.593   -3775.8246
   19600        0.196    407.01234    1.2287206 -0.013658142 0.0076738521 -0.022980904 -0.023092393          nan     861.9174   -53528.677   -4075.7878
   19650       0.1965    410.01174    1.2133665  0.037341876   0.09712877   -3.3638472   -3.3524521          nan    868.26914   -53537.967   -4492.7906
   19700        0.197    407.69594    1.1778383 -0.031116004 0.0010701848 -0.023012673 -0.023106647          nan    863.36503    -53536.07   -3825.9751
   19750       0.1975    407.83932    1.1211602 -0.034247343 -0.046470917   -3.3216202   -3.2979392          nan    863.66866   -53539.289   -3468.1397
   19800        0.198      410.608    1.1616433  0.022851323 -0.044943985 -0.023018854 -0.023107595          nan    869.53182   -53548.051   -3798.5022
   19850       0.1985    408.75353    1.1689764   0.09129606   0.03372633   -3.3359054   -3.3647898          nan    865.60465   -53547.041   -4313.3294
   19900        0.199    406.73166    1.1636202  0.038160413 0.0013311429 -0.022989505 -0.023091148          nan      861.323   -53545.692   -4010.3726
   19950       0.1995    406.42809    1.1424564 -0.042039569 -0.0059842948   -3.2995166   -3.3077563          nan    860.68014   -53547.946   -3648.1086
   20000          0.2    407.29258    1.1308292 -0.059480826 0.0064373617 -0.023019658 -0.023131079          nan    862.51085   -53552.629   -3592.6193
Loop time of 4538.85 on 4 procs for 20000 steps with 16384 atoms

Pair  time (%) = 4207.58 (92.7014)
Neigh time (%) = 2.75935 (0.060794)
Comm  time (%) = 174.79 (3.85098)
Outpt time (%) = 0.751353 (0.0165538)
Other time (%) = 152.972 (3.37028)

######################################
# SIMULATION DONE
print "All done"
All done
