# ----------------------- ATOM DEFINITION ----------------------------
lattice		fcc 4.05
Lattice spacing in x,y,z = 4.05 4.05 4.05
region		whole block 0 16 0 16 0 16
create_box	1 whole
Created orthogonal box = (0 0 0) to (64.8 64.8 64.8)
lattice 	fcc 4.05 orient x 1 0 0 orient y 0 1 0 orient z 0 0 1
Lattice spacing in x,y,z = 4.05 4.05 4.05
create_atoms	1 region whole
Created 16384 atoms

# ------------------------ FORCE FIELDS ------------------------------

#****************USE THIS TO TEST******************
pair_style	eam/rad
pair_coeff 			* * Al99.PC0.05.eam.alloy.rad.txt Al # pc = 0.5

# ------------------------- SETTINGS ---------------------------------
compute csym all centro/atom fcc
compute peratom all pe/atom

######################################
# EQUILIBRATION
reset_timestep	0
timestep	0.001 # default
# timestep	0.0001 # tiny time step
velocity all create 300 12345 mom yes rot no
fix 1 all npt temp 300 300 1 iso 0 0 1 drag 1

# Set thermo output
thermo 50
# thermo 1 # debug mode

# thermo_style custom step lx ly lz press pxx pyy pzz pe temp
# IMPLEMENTATION HERE

# VERSION add rad variables .v1 .v2
# thermo_style custom step lx ly lz press pxx pyy pzz pxxrad pyyrad pzzrad pe temp

# VERSION ublb separation .v3
thermo_style custom step lx ly lz press pxx pxxub pxxlb pyy pyyub pyylb pzz pzzub pzzlb pe temp

# Run for at least 10 picosecond (assuming 1 fs timestep)
run 	20000 # default
Step Lx Ly Lz Press Pxx Pxxub Pxxlb Pyy Pyyub Pyylb Pzz Pzzub Pzzlb PotEng Temp
0         64.8         64.8         64.8    2496.5946    2464.3333    7599.1821    7113.2012    2508.7809     7666.667    7180.6862    2516.6696    7747.6562    7261.6753    -55050.24          300
Averages over the last 201 of 401 rows, steps 10000 to 20000:
Lx Ly Lz Press Pxx Pxxub Pxxlb Pyy Pyyub Pyylb Pzz Pzzub Pzzlb PotEng Temp
65.0093 65.0093 65.0093 -0.440813 7.94012 251.352 -235.457 15.0659 258.486 -228.339 -24.3284 219.097 -267.739 -54485.9 267.66
Loop time of 3736.57 on 4 procs for 20000 steps with 16384 atoms

Pair  time (%) = 3271.29 (87.548)
Neigh time (%) = 0 (0)
Comm  time (%) = 182.557 (4.88569)
Outpt time (%) = 0.218731 (0.00585378)
Other time (%) = 282.503 (7.56048)

# run 	200000

# Use this if debug
# run 	1000
# run 200
unfix 1

# Store final cell length for strain calculations
variable tmp equal "lx"
variable L0 equal 65.0292040293441
Initial Length, L0: 65.0292040293441

######################################
# DEFORMATION
reset_timestep	0
set atom * xrad 0 yrad 0 zrad 0 vxrad 0 vyrad 0 vzrad 0
  16384 settings made for xrad
  16384 settings made for yrad
  16384 settings made for zrad
  16384 settings made for vxrad
  16384 settings made for vyrad
  16384 settings made for vzrad
fix		1 all npt temp 300 300 1 y 0 0 1 z 0 0 1 drag 1

variable srate equal 1.0e10
# variable srate equal 1.0e9 # tiny time step

variable srate1 equal "v_srate / 1.0e12"
fix		2 all deform 1 x erate 0.01 units box remap x

# Output strain and stress info to file
# for units metal, pressure is in [bars] = 100 [kPa] = 1/10000 [GPa]
# p2, p3, p4 are in GPa
variable strain equal "(lx - v_L0)/v_L0"
variable p1 equal "v_strain"
variable p2 equal "-pxx/10000"
variable p3 equal "-pyy/10000"
variable p4 equal "-pzz/10000"

# IMPLEMENTATION HERE
variable p5 equal "-pxxrad/10000"

# VERSION add rad variables
# variable p6 equal "-pyyrad/10000"
# variable p7 equal "-pzzrad/10000"

# VERSION ublb coupled/decoupled scheme
variable p6 equal "-pxxub/10000"
variable p7 equal "-pxxlb/10000"

# Use cfg for AtomEye
# dump 		1 all cfg 250 dump.tensile_*.cfg mass type xs ys zs c_csym c_peratom fx fy fz
# dump_modify 1 element Al

# print output to a text file every n timesteps
# dump		2 all custom 50 dump.xyz_rvf_rad.tensile_*.txt mass type id x y z vx vy vz fx fy fz xrad yrad zrad vxrad vyrad vzrad fxrad fyrad fzrad # use for rad developement
# dump		2 all custom 10 dump.xyz_rvf_rad.tensile_*.txt mass type id x y z vx vy vz fx fy fz xrad yrad zrad vxrad vyrad vzrad fxrad fyrad fzrad xub yub zub vxub vyub vzub fxub fyub fzub xlb ylb zlb vxlb vylb vzlb fxlb fylb fzlb # use for ublb developement

# Display thermo
thermo 	50
# thermo 1
# thermo_style	custom step v_strain temp v_p2 v_p3 v_p4 ke pe press

# IMPLEMENTATION HERE
thermo_style	custom step v_strain temp v_p2 v_p3 v_p4 v_p5 v_p6 v_p7 ke pe press
run	20000
Step strain Temp p2 p3 p4 p5 p6 p7 KinEng PotEng Press
0            0    291.66205 -0.0089028838 -0.0036466642 -0.0050014821 -0.024249292 -0.033229561  0.015422421    617.64367   -54439.173    58.503433
Averages over the last 201 of 401 rows, steps 10000 to 20000:
strain Temp p2 p3 p4 p5 p6 p7 KinEng PotEng Press
0.15 341.427 4.74179 0.00318909 0.00249792 -0.0232326 4.71845 4.76512 723.029 -53460.4 -15824.9
Loop time of 4429.7 on 4 procs for 20000 steps with 16384 atoms

Pair  time (%) = 3956.15 (89.3096)
Neigh time (%) = 2.7736 (0.0626138)
Comm  time (%) = 176.129 (3.97609)
Outpt time (%) = 0.204862 (0.00462475)
Other time (%) = 294.445 (6.64707)

######################################
# SIMULATION DONE
print "All done"
All done
