LAMMPS (28 Jun 2014)
# Input file for uniaxial tensile loading of single crystal aluminum
# Mark Tschopp, November 2010

# ------------------------ INITIALIZATION ----------------------------
units 		metal
dimension	3
boundary	p	p	p
atom_style	atomic
variable latparam equal 4.05

# ----------------------- ATOM DEFINITION ----------------------------
lattice		fcc 4.05
Lattice spacing in x,y,z = 4.05 4.05 4.05
region		whole block 0 10 0 10 0 10
create_box	1 whole
Created orthogonal box = (0 0 0) to (40.5 40.5 40.5)
lattice 	fcc 4.05 orient x 1 0 0 orient y 0 1 0 orient z 0 0 1
Lattice spacing in x,y,z = 4.05 4.05 4.05
create_atoms	1 region whole
Created 4000 atoms

# ------------------------ FORCE FIELDS ------------------------------
pair_style	eam/alloy
pair_coeff	* * Al99.posRhoR.eam.alloy Al

# ------------------------- SETTINGS ---------------------------------
compute csym all centro/atom fcc
compute peratom all pe/atom

######################################
# EQUILIBRATION
reset_timestep	0
timestep 0.001
velocity all create 300 12345 mom yes rot no
fix 1 all npt temp 300 300 1 iso 0 0 1 drag 1

# Set thermo output
thermo 50
thermo_style custom step lx ly lz press pxx pyy pzz pe temp

# Run for at least 10 picosecond (assuming 1 fs timestep)
run 20000
Step Lx Ly Lz Press Pxx Pyy Pzz PotEng Temp
0         40.5         40.5         40.5    21115.056    21065.923    21153.587    21125.658   -13396.406          300
Averages over the last 201 of 401 rows, steps 10000 to 20000:
Lx Ly Lz Press Pxx Pyy Pzz PotEng Temp
41.1478 41.1478 41.1478 -0.554101 3.52811 -23.433 18.2426 -13260.8 279.048
Loop time of 473.84 on 4 procs for 20000 steps with 4000 atoms

Pair  time (%) = 330.474 (69.7438)
Neigh time (%) = 0.0129295 (0.00272866)
Comm  time (%) = 106.727 (22.5238)
Outpt time (%) = 0.701261 (0.147995)
Other time (%) = 35.925 (7.58166)

unfix 1

# Store final cell length for strain calculations
variable tmp equal "lx"
variable L0 equal 41.1661016233907
Initial Length, L0: 41.1661016233907

######################################
# DEFORMATION
reset_timestep	0

fix		1 all npt temp 300 300 1 y 0 0 1 z 0 0 1 drag 1
variable srate equal 1.0e10
variable srate1 equal "v_srate / 1.0e12"
fix		2 all deform 1 x erate 0.01 units box remap x

# Output strain and stress info to file
# for units metal, pressure is in [bars] = 100 [kPa] = 1/10000 [GPa]
# p2, p3, p4 are in GPa
variable strain equal "(lx - v_L0)/v_L0"
variable p1 equal "v_strain"
variable p2 equal "-pxx/10000"
variable p3 equal "-pyy/10000"
variable p4 equal "-pzz/10000"

# Use cfg for AtomEye
#dump 		1 all cfg 250 dump.tensile_*.cfg id type xs ys zs c_csym c_peratom fx fy fz
#dump_modify 1 element Al

# Display thermo
thermo 	50
thermo_style	custom step v_strain temp v_p2 v_p3 v_p4 ke pe press

run		20000
Step strain Temp p2 p3 p4 KinEng PotEng Press
0 -8.6301922e-16    303.01026 -0.0057584681  0.023312458  0.003325303    156.62944   -13252.636   -69.597642
Averages over the last 201 of 401 rows, steps 10000 to 20000:
strain Temp p2 p3 p4 KinEng PotEng Press
0.15 329.73 2.61476 0.00248329 0.00165471 170.441 -13078.6 -8729.67
Loop time of 337.687 on 4 procs for 20000 steps with 4000 atoms

Pair  time (%) = 274.542 (81.3007)
Neigh time (%) = 0.845433 (0.25036)
Comm  time (%) = 47.6666 (14.1156)
Outpt time (%) = 0.176843 (0.0523689)
Other time (%) = 14.4563 (4.28098)

######################################
# SIMULATION DONE
print "All done"
All done
