LAMMPS (28 Jun 2014)
# Input file for uniaxial tensile loading of single crystal aluminum
# Mark Tschopp, November 2010

# ------------------------ INITIALIZATION ----------------------------
units 		metal
dimension	3
boundary	p	p	p
atom_style	atomic
variable latparam equal 4.05

# ----------------------- ATOM DEFINITION ----------------------------
lattice		fcc 4.05
Lattice spacing in x,y,z = 4.05 4.05 4.05
region		whole block 0 10 0 10 0 10
create_box	1 whole
Created orthogonal box = (0 0 0) to (40.5 40.5 40.5)
lattice 	fcc 4.05 orient x 1 0 0 orient y 0 1 0 orient z 0 0 1
Lattice spacing in x,y,z = 4.05 4.05 4.05
create_atoms	1 region whole
Created 4000 atoms

# ------------------------ FORCE FIELDS ------------------------------
pair_style	eam/alloy
pair_coeff	* * Al99.negPhiR.eam.alloy Al

# ------------------------- SETTINGS ---------------------------------
compute csym all centro/atom fcc
compute peratom all pe/atom

######################################
# EQUILIBRATION
reset_timestep	0
timestep 0.001
velocity all create 300 12345 mom yes rot no
fix 1 all npt temp 300 300 1 iso 0 0 1 drag 1

# Set thermo output
thermo 50
thermo_style custom step lx ly lz press pxx pyy pzz pe temp

# Run for at least 10 picosecond (assuming 1 fs timestep)
run 20000
Step Lx Ly Lz Press Pxx Pyy Pzz PotEng Temp
0         40.5         40.5         40.5   -75190.374   -75239.508   -75151.844   -75179.772   -16098.985          300
Averages over the last 201 of 401 rows, steps 10000 to 20000:
Lx Ly Lz Press Pxx Pyy Pzz PotEng Temp
39.2138 39.2138 39.2138 -15.4708 -35.774 -45.4758 34.8374 -16236.9 294.29
Loop time of 658.145 on 4 procs for 20000 steps with 4000 atoms

Pair  time (%) = 446.033 (67.7713)
Neigh time (%) = 0.020337 (0.00309005)
Comm  time (%) = 146.216 (22.2163)
Outpt time (%) = 1.29801 (0.197223)
Other time (%) = 64.5775 (9.81206)

unfix 1

# Store final cell length for strain calculations
variable tmp equal "lx"
variable L0 equal 39.2151939082705
Initial Length, L0: 39.2151939082705

######################################
# DEFORMATION
reset_timestep	0

fix		1 all npt temp 300 300 1 y 0 0 1 z 0 0 1 drag 1
variable srate equal 1.0e10
variable srate1 equal "v_srate / 1.0e12"
fix		2 all deform 1 x erate 0.01 units box remap x

# Output strain and stress info to file
# for units metal, pressure is in [bars] = 100 [kPa] = 1/10000 [GPa]
# p2, p3, p4 are in GPa
variable strain equal "(lx - v_L0)/v_L0"
variable p1 equal "v_strain"
variable p2 equal "-pxx/10000"
variable p3 equal "-pyy/10000"
variable p4 equal "-pzz/10000"

# Use cfg for AtomEye
#dump 		1 all cfg 250 dump.tensile_*.cfg id type xs ys zs c_csym c_peratom fx fy fz
#dump_modify 1 element Al

# Display thermo
thermo 	50
thermo_style	custom step v_strain temp v_p2 v_p3 v_p4 ke pe press

run		20000
Step strain Temp p2 p3 p4 KinEng PotEng Press
0 -1.8119067e-16    300.73202 -0.030225927 -0.036847354 -0.0087947418    155.45179   -16233.136    252.89341
Averages over the last 201 of 401 rows, steps 10000 to 20000:
strain Temp p2 p3 p4 KinEng PotEng Press
0.15 305.954 9.67492 -0.000498471 0.00365301 158.151 -15883.1 -32260.2
Loop time of 755.747 on 4 procs for 20000 steps with 4000 atoms

Pair  time (%) = 480.738 (63.611)
Neigh time (%) = 0.204472 (0.0270557)
Comm  time (%) = 182.431 (24.1392)
Outpt time (%) = 1.40326 (0.185679)
Other time (%) = 90.9697 (12.0371)

######################################
# SIMULATION DONE
print "All done"
All done
