# ----------------------- ATOM DEFINITION ----------------------------
lattice		fcc 4.05
Lattice spacing in x,y,z = 4.05 4.05 4.05
region		whole block 0 10 0 10 0 10
create_box	1 whole
Created orthogonal box = (0 0 0) to (40.5 40.5 40.5)
lattice 	fcc 4.05 orient x 1 0 0 orient y 0 1 0 orient z 0 0 1
Lattice spacing in x,y,z = 4.05 4.05 4.05
create_atoms	1 region whole
Created 4000 atoms

# ------------------------ FORCE FIELDS ------------------------------

#****************USE THIS TO TEST******************
pair_style	eam/rad
pair_coeff 		* * Al99.PC0.005.eam.alloy.rad.txt Al # pc = 0.5   error generating

# to test with error = 0 use this potential
# pair_coeff	* * Al99.eam.alloy.005pcrad_NULL_noerror Al

#****************USE THIS TO RUN REFRENCE***********
# pair_style	eam/alloy
# pair_coeff	* * Al99.eam.alloy Al

# ------------------------- SETTINGS ---------------------------------
compute csym all centro/atom fcc
compute peratom all pe/atom

######################################
# EQUILIBRATION
reset_timestep	0
timestep	0.001 # default
# timestep	0.0001 # tiny time step
velocity all create 300 12345 mom yes rot no
fix 1 all npt temp 300 300 1 iso 0 0 1 drag 1

# Set thermo output
thermo 50
# thermo 1 # debug mode

# thermo_style custom step lx ly lz press pxx pyy pzz pe temp
# IMPLEMENTATION HERE

# VERSION add rad variables .v1 .v2
# thermo_style custom step lx ly lz press pxx pyy pzz pxxrad pyyrad pzzrad pe temp

# VERSION ublb separation .v3
thermo_style custom step lx ly lz press pxx pxxrad pyy pyyrad pzz pzzrad pe temp

# Run for at least 10 picosecond (assuming 1 fs timestep)
run 	20000 # default
Step Lx Ly Lz Press Pxx Pxxrad Pyy Pyyrad Pzz Pzzrad PotEng Temp
0         40.5         40.5         40.5    2496.1233    2446.9902     13.80051    2534.6541     13.80051    2506.7256    27.601019       -13440          300
Averages over the last 201 of 401 rows, steps 10000 to 20000:
Lx Ly Lz Press Pxx Pxxrad Pyy Pyyrad Pzz Pzzrad PotEng Temp
40.6409 40.6409 40.6409 -0.413478 -9.04404 22887.5 -12.8334 22980.2 20.637 31.1515 -13293.4 284.383
Loop time of 925.099 on 4 procs for 20000 steps with 4000 atoms

Pair  time (%) = 854.994 (92.4219)
Neigh time (%) = 0 (0)
Comm  time (%) = 48.9822 (5.29481)
Outpt time (%) = 0.284049 (0.0307048)
Other time (%) = 20.839 (2.25263)

# run 	200000

# Use this if debug
# run 	1000
# run 200
unfix 1

# Store final cell length for strain calculations
variable tmp equal "lx"
variable L0 equal 40.6483922577475
Initial Length, L0: 40.6483922577475

######################################
# DEFORMATION
reset_timestep	0
set atom * xrad 0 yrad 0 zrad 0 vxrad 0 vyrad 0 vzrad 0
  4000 settings made for xrad
  4000 settings made for yrad
  4000 settings made for zrad
  4000 settings made for vxrad
  4000 settings made for vyrad
  4000 settings made for vzrad
fix		1 all npt temp 300 300 1 y 0 0 1 z 0 0 1 drag 1

variable srate equal 1.0e10
# variable srate equal 1.0e9 # tiny time step

variable srate1 equal "v_srate / 1.0e12"
fix		2 all deform 1 x erate 0.01 units box remap x

# Output strain and stress info to file
# for units metal, pressure is in [bars] = 100 [kPa] = 1/10000 [GPa]
# p2, p3, p4 are in GPa
variable strain equal "(lx - v_L0)/v_L0"
variable p1 equal "v_strain"
variable p2 equal "-pxx/10000"
variable p3 equal "-pyy/10000"
variable p4 equal "-pzz/10000"

# IMPLEMENTATION HERE
variable p5 equal "-pxxrad/10000"

# VERSION add rad variables
variable p6 equal "-pyyrad/10000"
variable p7 equal "-pzzrad/10000"

# VERSION ublb coupled/decoupled scheme
# variable p6 equal "-pxxub/10000"
# variable p7 equal "-pxxlb/10000"

# Use cfg for AtomEye
# dump 		1 all cfg 250 dump.tensile_*.cfg mass type xs ys zs c_csym c_peratom fx fy fz
# dump_modify 1 element Al

# print output to a text file every n timesteps
# dump		2 all custom 50 dump.xyz_rvf_rad.tensile_*.txt mass type id x y z vx vy vz fx fy fz xrad yrad zrad vxrad vyrad vzrad fxrad fyrad fzrad # use for rad developement
# dump		2 all custom 50 dump.xyz_rvf_rad.tensile_*.txt mass type id x y z vx vy vz fx fy fz xrad yrad zrad vxrad vyrad vzrad fxrad fyrad fzrad xub yub zub vxub vyub vzub fxub fyub fzub xlb ylb zlb vxlb vylb vzlb fxlb fylb fzlb # use for ublb developement

# Display thermo
thermo 	50
# thermo 1
# thermo_style	custom step v_strain temp v_p2 v_p3 v_p4 ke pe press

# IMPLEMENTATION HERE
thermo_style	custom step v_strain temp v_p2 v_p3 v_p4 v_p5 v_p6 v_p7 ke pe press
run	20000
Step strain Temp p2 p3 p4 p5 p6 p7 KinEng PotEng Press
       0            0    295.05319  -0.02368314 -0.029812899 -0.0083852874 -0.0013537313 -0.001353839          nan    152.51633   -13283.071    206.27109
      50       0.0005    305.27076  0.076385928  0.026700653   0.02544381    -2.498165   -2.4654123          nan    157.79791   -13288.296   -428.43464
     100        0.001    295.42717   0.06301276   0.02872752  0.009142002 -0.0017883648 -0.0017610996          nan    152.70965   -13283.145   -336.27427
     150       0.0015    303.35582   0.10391563  0.021016666 -0.016979124   -2.4986106   -2.4986956          nan    156.80806   -13287.176    -359.8439
     200        0.002    301.05276   0.11977248 -0.063221078 0.0076251495 -0.0017799323 -0.0017971697          nan    155.61758   -13285.908   -213.92183
     250       0.0025    295.64903   0.15045177 -0.011141413 -0.017034305   -2.4406939   -2.4224945          nan    152.82433   -13283.033   -407.58686
     300        0.003    297.59578   0.20177241  0.017257887  0.043740917 -0.001769519 -0.0017905739          nan    153.83063   -13283.947   -875.90403
     350       0.0035    297.90159   0.21457242  0.016962525  0.013201642   -2.3880426   -2.3761062          nan     153.9887   -13284.012   -815.78861
     400        0.004     302.2837   0.23780181 -0.012340809 -0.030440108 -0.0017780638 -0.0017778182          nan    156.25386   -13286.167   -650.06963
     450       0.0045    301.24938   0.28630656 0.0061301808 -0.035861067   -2.4113926   -2.4127137          nan    155.71922   -13285.519   -855.25223
     500        0.005    296.61352   0.31253741 0.0079158149  0.014220882 -0.001794161 -0.0017709143          nan    153.32289   -13283.004   -1115.5803
     550       0.0055    304.12293   0.37536467  0.015063377  0.046358205   -2.4221808   -2.5019652          nan    157.20458   -13286.755   -1455.9542
     600        0.006    295.36034   0.37703246 -0.0086069583 -0.0076705015 -0.0017707035 -0.0017664769          nan     152.6751   -13282.091   -1202.5167
     650       0.0065    302.92334   0.41996667 -0.011519301 -0.00041694971   -2.4284201   -2.4537061          nan     156.5845   -13285.854   -1360.1014
     700        0.007    298.20205   0.43576674 -0.025363065 -0.014081269 -0.0017689718 -0.0017723976          nan    154.14402   -13283.265   -1321.0747
     750       0.0075    295.82411   0.48498769  0.015544159  0.011999991   -2.4488517   -2.3427052          nan    152.91483   -13281.879   -1708.4395
     800        0.008    302.13311   0.52029438  0.027130983  0.018111419 -0.0017748235 -0.0017813923          nan    156.17602   -13284.977   -1885.1226
     850       0.0085    301.09945   0.55422916  0.003843732 -0.016729839   -2.3953982   -2.4851047          nan    155.64172    -13284.27   -1804.4768
     900        0.009    300.31698   0.57208332 0.0015430849 -0.0065144422  -0.00177299 -0.0017832906          nan    155.23725   -13283.688   -1890.3732
     950       0.0095    301.07859    0.6263659 0.0012301972 -0.0057598621   -2.4247987   -2.4718138          nan    155.63093   -13283.895   -2072.7874
    1000         0.01    301.50988   0.65335757 0.0023734946  0.040408462 -0.0017573148 -0.0017916356          nan    155.85387   -13283.925   -2320.4651
    1050       0.0105    297.02491   0.66836506 0.0044850551 -0.0080675322   -2.4296004   -2.4329364          nan    153.53554   -13281.404    -2215.942
    1100        0.011    299.92421   0.69534003    0.0050105 0.0089962338  -0.00177158 -0.0017780959          nan    155.03422   -13282.701   -2364.4892
    1150       0.0115    300.93967   0.72842287 -0.0066764886 -0.023511094    -2.381565   -2.4127114          nan    155.55912   -13283.011    -2327.451
    1200        0.012    298.11516   0.74283245 0.0023225495 -0.0056781198 -0.0017670911 -0.0017775516          nan     154.0991   -13281.331   -2464.9229
    1250       0.0125    296.09534   0.80074317 -0.00015762297  0.016038089   -2.4377587   -2.2923436          nan    153.05503    -13280.06   -2722.0788
    1300        0.013    300.38579   0.81874177 -0.0076835348  0.011580456 -0.0017678885 -0.0017770145          nan    155.27282   -13282.048    -2742.129
    1350       0.0135    294.35458   0.84512009 -0.031162971 -0.024399982   -2.3180846   -2.4075118          nan    152.15522   -13278.691   -2631.8571
    1400        0.014    298.92375   0.91345678 0.0073932019  -0.01098955 -0.0017694007 -0.0017747086          nan    154.51707   -13280.801   -3032.8681
    1450       0.0145    299.86146   0.92245658  0.044193515  0.026805922    -2.371265   -2.3950292          nan    155.00178   -13281.031     -3311.52
    1500        0.015    297.04973   0.96477228 -0.0038140823 0.0042775993 -0.0017597697 -0.0017809829          nan    153.54837   -13279.319   -3217.4527
    1550       0.0155    301.32705   0.97107154 -0.017055583 -0.023224235   -2.4715709    -2.394664          nan    155.75936   -13281.256   -3102.6391
    1600        0.016    300.47997    1.0189589 -0.0051068267 -0.018145599  -0.00176588 -0.0017620015          nan     155.3215   -13280.543   -3319.0216
    1650       0.0165    298.70423    1.0694414  0.016005424  0.029115908     -2.34932   -2.3738498          nan     154.4036    -13279.34    -3715.209
    1700        0.017     299.1915    1.1279416  0.018829441  0.025145113 -0.0017594561 -0.0017690464          nan    154.65547   -13279.296   -3906.3871
    1750       0.0175    302.96186    1.1236282 0.0049706753 -0.0038490882   -2.4481674   -2.4236458          nan    156.60442   -13280.943   -3749.1659
    1800        0.018    297.54899    1.1340796 -0.038355047 -0.0038681782 -0.0017596176 -0.0017718147          nan    153.80644   -13277.838   -3639.5214
    1850       0.0185    300.18284     1.202559  0.024060562 -0.025380846   -2.4365714   -2.4364248          nan    155.16791   -13278.883   -4004.1291
    1900        0.019      301.905    1.2428105  0.013249417  0.042858646 -0.0017683298 -0.0017798627          nan    156.05811   -13279.452   -4329.7287
    1950       0.0195    297.56463    1.2595106  0.020898741 0.0060602864   -2.4407689    -2.322376          nan    153.81452   -13276.881   -4288.2322
    2000         0.02    301.39312     1.287643 -0.020410125 0.0014033429 -0.001768025 -0.0017717021          nan    155.79352   -13278.523   -4228.7873
    2050       0.0205    297.39065    1.3212022  -0.02259175 -0.028835303   -2.3910338     -2.36327          nan     153.7246   -13276.109   -4232.5839
    2100        0.021    296.57933    1.3530512  0.024545494   0.01259576 -0.001758718 -0.0017547902          nan    153.30522    -13275.34    -4633.975
    2150       0.0215    301.86389      1.42285  0.014651572  0.018754474   -2.4963524   -2.4800749          nan    156.03686   -13277.716    -4854.187
    2200        0.022     300.8428     1.412048 0.0012920287 -0.0021998856 -0.0017565293 -0.0017696173          nan    155.50905   -13276.825   -4703.8004
    2250       0.0225    299.02725    1.4321461 -0.0040392456  -0.02995493   -2.4350871   -2.4068282          nan    154.57057   -13275.515   -4660.5065
    2300        0.023    297.44991    1.4709187 0.0051088264 -0.0080936701 -0.0017649925 -0.0017487436          nan    153.75522   -13274.321   -4893.1129
    2350       0.0235    299.76275    1.5253658  0.011264959  0.029684555   -2.4839685   -2.4037634          nan    154.95076   -13275.137   -5221.0509
    2400        0.024    297.54615     1.539138 -0.0043798112  0.014949503 -0.0017596839 -0.0017434688          nan    153.80497   -13273.602   -5165.6921
    2450       0.0245    299.17032    1.5501475 -0.023600856 -0.029707099   -2.4338456   -2.3959823          nan    154.64453   -13274.046    -4989.465
    2500        0.025    297.21842    1.5902559  -0.03311447 0.0058390706 -0.0017499061 -0.0017570077          nan    153.63556    -13272.64   -5209.9351
    2550       0.0255    301.31341    1.6512509  0.029887397  0.021011691   -2.4580147   -2.4392507          nan    155.75231   -13274.349   -5673.8333
    2600        0.026    296.45283    1.6611498 -0.012557481  0.027613457 -0.0017567924 -0.0017528108          nan    153.23982   -13271.422   -5587.3527
    2650       0.0265    301.29272    1.6973705  0.028162696 -0.018934186   -2.4693526   -2.4256051          nan    155.74162   -13273.502   -5688.6633
    2700        0.027    299.01917     1.704902 -0.037149708 -0.012826785 -0.001757718 -0.0017626621          nan    154.56639   -13271.892   -5516.4185
    2750       0.0275    294.81053    1.7458347  0.026329128 -0.033596017   -2.3671122   -2.3558878          nan     152.3909   -13269.282   -5795.2259
    2800        0.028    307.06192    1.8364285  0.012779723  0.029960898 -0.0017504649 -0.0017778813          nan    158.72378   -13275.167   -6263.8972
    2850       0.0285     294.3924    1.8029528  0.036267881 -0.0075944043   -2.3829273   -2.3341449          nan    152.17476   -13268.171   -6105.4209
    2900        0.029    298.82632    1.8278992 -0.034723123  0.023443073 -0.0017704223 -0.0017509469          nan    154.46671   -13270.005   -6055.3973
    2950       0.0295      295.566    1.8545584 -0.026736901 -0.049688918   -2.4265912   -2.3648095          nan    152.78141   -13267.857   -5927.1085
    3000         0.03    297.08106     1.903764 -0.032824072 -0.0045135911 -0.001751965 -0.0017558639          nan    153.56456   -13268.172    -6221.421
    3050       0.0305    296.51612    1.9797658 0.0079111261  0.035459186   -2.3856463   -2.3932937          nan    153.27254   -13267.398    -6743.787
    3100        0.031    296.18725    1.9856293  0.045357593  0.027168871 -0.0017484645 -0.0017498787          nan    153.10254   -13266.743   -6860.5192
    3150       0.0315    305.23717    1.9950752 -0.030633714 0.0012006404   -2.4655766   -2.4078454          nan    157.78055   -13270.935   -6552.1403
    3200        0.032    295.69797    2.0031751 -0.018824519 -0.066757497 -0.0017430871 -0.0017457557          nan    152.84963   -13265.506   -6391.9768
    3250       0.0325    300.14851    2.0592877  0.025645712 0.0078527845   -2.4229487   -2.4438867          nan    155.15016   -13267.304   -6975.9538
    3300        0.033    296.99658    2.1116954  0.034580846    0.0282224 -0.0017358433 -0.0017475124          nan    153.52089   -13265.162   -7248.3287
    3350       0.0335     300.9741    2.1355972  -0.00194848   0.02416816   -2.3831833   -2.3773881          nan    155.57692   -13266.702   -7192.7229
    3400        0.034     297.6866    2.1059411 -0.041805527 -0.046066095 -0.0017554346 -0.0017482944          nan    153.87757    -13264.48   -6726.8982
    3450       0.0345    305.14294    2.2052616 -0.011940045 0.0022416296   -2.4083782    -2.520072          nan    157.73184   -13267.806   -7318.5441
    3500        0.035    295.38726     2.223179  0.016391681   0.03626556 -0.0017342946 -0.0017472442          nan    152.68902   -13262.223   -7586.1207
    3550       0.0355    295.53308    2.2537383  0.041900871  0.017738718   -2.4124343   -2.3434373          nan     152.7644   -13261.752   -7711.2595
    3600        0.036     298.1314    2.2553092 -0.011210393 -0.017247276 -0.0017448724 -0.0017484816          nan    154.10749   -13262.551   -7422.8383
    3650       0.0365    299.82169    2.2443079 -0.026787324 -0.039316009    -2.395778   -2.3394328          nan    154.98122   -13262.866    -7260.682
    3700        0.037    293.53766    2.2946792 -0.032415349 -0.021033441 -0.0017507068 -0.0017351012          nan    151.73294   -13259.067   -7470.7681
    3750       0.0375    304.54477    2.3932302  0.043720903  0.040664473   -2.4422086   -2.4711389          nan    157.42264   -13264.189   -8258.7187
    3800        0.038    297.10803    2.4218171  0.029756495  0.023019365 -0.0017356678 -0.0017444811          nan     153.5785   -13259.769   -8248.6431
    3850       0.0385    298.24456    2.3861613 -0.006913458 -0.0015322537   -2.4078046    -2.338466          nan    154.16599   -13259.786   -7925.7187
    3900        0.039    302.84281    2.4471813 -0.017592294 -0.041187509 -0.0017441641 -0.0017487093          nan    156.54288   -13261.573   -7961.3383
    3950       0.0395    301.19288     2.471888 0.0021618945  0.011346936   -2.4125589   -2.4346569          nan    155.69001    -13260.13    -8284.656
    4000         0.04    298.66148    2.5445055  0.033778704  0.037010058 -0.0017399368 -0.0017453071          nan     154.3815   -13258.223   -8717.6477
    4050       0.0405    297.97772    2.5277443  0.013332919  0.024530863    -2.388817   -2.3332308          nan    154.02806   -13257.265   -8552.0271
    4100        0.041     302.9923    2.5885304 -0.024936895 -0.024123607 -0.0017423331 -0.001752342          nan    156.62015   -13259.242   -8464.8997
    4150       0.0415    296.99519    2.5535912 -0.017797498 -0.017132526   -2.4092458   -2.4176502          nan    153.52017   -13255.525   -8395.5373
    4200        0.042    295.23504    2.6238895  0.028754394 -0.016571959 -0.0017450623 -0.001725042          nan    152.61033   -13253.997   -8786.9064
    4250       0.0425    302.11298    2.6842481 0.0047643994  0.050599111   -2.4328902    -2.404568          nan    156.16562   -13256.917   -9132.0387
    4300        0.043    292.17189    2.6621029 -0.015119507 -0.015965121 -0.0017418473 -0.0017182818          nan    151.02696   -13251.148   -8770.0609
    4350       0.0435    301.60128    2.7150595 -0.013027187 -0.014672073   -2.4127048   -2.3883088          nan    155.90112   -13255.379   -8957.8675
    4400        0.044    297.74582     2.746018 -0.027389178  0.012197353 -0.0017359372 -0.0017528862          nan    153.90818   -13252.736    -9102.754
    4450       0.0445     299.6204    2.8079968  0.027318502 -0.0039871917   -2.3898811   -2.4055741          nan    154.87718   -13253.053   -9437.7603
    4500        0.045    297.25924    2.8030405 0.0045777665  0.022483889 -0.001729059 -0.0017379005          nan    153.65667   -13251.169   -9433.6738
    4550       0.0455    301.51407    2.8767196 -0.017022271  0.011794475   -2.3753301   -2.3482395          nan    155.85604   -13252.696   -9571.6395
    4600        0.046    301.74444    2.8724511  0.051709911 -0.012316009 -0.0017665407 -0.0017156114          nan    155.97512   -13252.132   -9706.1501
    4650       0.0465    297.56196     2.893493 -0.033975508 -0.0070609477   -2.3298034   -2.4227247          nan    153.81315   -13249.291   -9508.1884
    4700        0.047    294.13308    2.9169228 0.0035917204 -0.016751448 -0.0017339553 -0.0017204729          nan    152.04072   -13246.829   -9679.2102
    4750       0.0475    298.42928    2.9773057 0.0060356317   0.01925135   -2.4023864    -2.381809          nan    154.26147   -13248.352   -10008.642
    4800        0.048    298.80154    2.9959196  0.023732365 -0.010879241 -0.0017292365 -0.0017309879          nan     154.4539   -13247.847   -10029.242
    4850       0.0485    303.41324    3.0075982 -0.0061712832 -0.00089613758   -2.4510652   -2.3646958          nan    156.83774   -13249.529   -10001.769
    4900        0.049     299.3143    3.0417348  -0.00253436 -0.024125699 -0.001735157 -0.0017329348          nan    154.71895     -13246.7   -10050.249
    4950       0.0495    294.04119    3.0613838  0.010504683 0.0046723634   -2.4106765   -2.3549654          nan    151.99322   -13243.265   -10255.203
    5000         0.05    301.19171    3.1276593  0.022999585  0.055372935 -0.0017373963 -0.0017301283          nan     155.6894   -13246.234   -10686.773
    5050       0.0505    295.91312    3.1357774 -0.015370639 -0.017314394   -2.3835613   -2.3438987          nan    152.96084   -13242.779   -10343.641
    5100        0.051    297.45326    3.1539132 -0.046322016 -0.021357721 -0.0017256793 -0.0017342932          nan    153.75696   -13242.832   -10287.445
    5150       0.0515     295.7443    3.2072085 -0.033164799 0.0018664753   -2.3181756   -2.2990591          nan    152.87358   -13241.205   -10586.367
    5200        0.052     296.9309    3.2386035  0.015271508  0.030084288 -0.0017242944 -0.0017233062          nan    153.48694   -13241.069   -10946.531
    5250       0.0525    295.50977    3.2522843  0.017965414  0.012543572   -2.3611519   -2.4002297          nan    152.75235   -13239.588   -10942.644
    5300        0.053     299.0554    3.2934108 -0.012045692 -0.015707021 -0.0017344208 -0.0017287759          nan    154.58512   -13240.659   -10885.527
    5350       0.0535     299.2832    3.3094777 -0.0038038389 -0.045896569   -2.3853339   -2.3431604          nan    154.70288   -13240.006   -10865.924
    5400        0.054    297.35019    3.3424285  0.023086269 -0.013865812 -0.0017374929 -0.0017206359          nan    153.70368   -13238.234   -11172.163
    5450       0.0545    298.78331    3.3878316  0.052570017  0.015137087   -2.3652643   -2.3545872          nan    154.44447   -13238.204   -11518.462
    5500        0.055    295.07703    3.3868832 -0.0067934096 -0.020396087 -0.0017232517 -0.0017223297          nan    152.52866   -13235.514   -11198.979
    5550       0.0555    296.79754    3.4000931 -0.037028038 -0.020119574   -2.3542546   -2.3651408          nan    153.41801   -13235.615   -11143.152
    5600        0.056    301.39711    3.4653804 0.0050087383  0.030795595 -0.0017187842 -0.0017371819          nan    155.79558   -13237.193   -11670.616
    5650       0.0565    295.10996     3.491335 -0.0064952873  0.019791512   -2.3790739    -2.404473          nan    152.54568   -13233.142   -11682.104
    5700        0.057    302.33822    3.5320459 -0.017306053  0.045758238 -0.0017154604 -0.0017394424          nan    156.28205   -13236.066   -11868.327
    5750       0.0575    301.11689    3.5515934   0.01056928 0.0028727941   -2.4600759   -2.3322173          nan    155.65073   -13234.627   -11883.452
    5800        0.058    298.87619     3.591932 -0.019896206 -0.024690391 -0.0017150598 -0.0017431342          nan    154.49249   -13232.644   -11824.485
    5850       0.0585    299.44899    3.6082841 0.0004748079  0.021221611   -2.3939067   -2.3763169          nan    154.78857   -13232.114   -12099.935
    5900        0.059    296.27359    3.6642386  0.046351765 -0.0065678213 -0.0017201295 -0.0017248672          nan    153.14717    -13229.64   -12346.742
    5950       0.0595    294.10251    3.6656502 -0.0064134516 -0.025371359   -2.2975785   -2.3705834          nan    152.02492   -13227.675   -12112.885
    6000         0.06    293.90218    3.6869601 -0.0017507995  -0.04876057 -0.001701781 -0.0017160539          nan    151.92136   -13226.729   -12121.496
    6050       0.0605    295.60619    3.7556568  0.020033197 -0.021706878   -2.2801096    -2.351596          nan    152.80219   -13226.759   -12513.277
    6100        0.061    296.81875    3.7567425  0.016832321  0.029340039 -0.0017120728 -0.0017319495          nan    153.42897   -13226.535   -12676.383
    6150       0.0615    300.85331     3.776203   -0.0267741  0.028058624   -2.4263968   -2.3323584          nan    155.51448   -13227.754   -12591.625
    6200        0.062    297.62806    3.7838742 -0.0063994282 -0.035517066 -0.0017179172 -0.0017160339          nan    153.84731    -13225.22   -12473.192
    6250       0.0625    299.09081    3.8577525 -0.046720242   0.04491885   -2.3196347   -2.4021435          nan    154.60343   -13225.105    -12853.17
    6300        0.063    297.01891    3.8793894  0.018329749 0.0075551163 -0.0017122352 -0.0017236957          nan    153.53244   -13223.153   -13017.581
    6350       0.0635    297.51843    3.9156791  0.032127764  0.018982227   -2.3886631   -2.3361656          nan    153.79065   -13222.521    -13222.63
    6400        0.064     300.0686    3.9586014 -0.0013725591 -0.016584533 -0.0017170164 -0.0017192847          nan    155.10886   -13222.943   -13135.481
    6450       0.0645    298.98999    3.9488134 -0.019015711 -0.031036943    -2.382034    -2.416992          nan    154.55131   -13221.485   -12995.869
    6500        0.065    295.19391    3.9941886 0.0059989835 -0.040263996 -0.0017071587 -0.0017090115          nan    152.58907   -13218.621   -13199.745
    6550       0.0655    301.09898    4.0687854  0.017064476  0.031499443   -2.4007759   -2.3548065          nan    155.64147   -13220.759   -13724.498
    6600        0.066    299.49308    4.0866957  0.048690053  0.032767488 -0.0017066371 -0.0017309085          nan    154.81136   -13219.011   -13893.844
    6650       0.0665    296.30754    4.0446828 -0.028069799 0.0080488296   -2.3463166   -2.3345798          nan    153.16472   -13216.446    -13415.54
    6700        0.067     296.5412     4.065192 -0.063238046 -0.020974964 -0.0017163923 -0.0017224022          nan     153.2855   -13215.643    -13269.93
    6750       0.0675    299.62322     4.148748 0.00097620029  0.009074635   -2.3656337   -2.3224056          nan    154.87864   -13216.308   -13862.663
    6800        0.068    300.76649    4.2125262  0.022616033  0.039164622 -0.001715675 -0.0017191925          nan     155.4696   -13215.952   -14247.689
    6850       0.0685    297.19101    4.1881577  0.040235042 0.0050452335   -2.3753534   -2.3432669          nan     153.6214   -13213.161    -14111.46
    6900        0.069    293.70756    4.1907655 -0.026125956 -0.042331676 -0.0017072563 -0.0017173219          nan    151.82076   -13210.412   -13741.026
    6950       0.0695    296.83448    4.2553369 -0.022821403 -0.046623065   -2.3735623   -2.2697021          nan    153.43711   -13211.066   -13952.975
    7000         0.07    293.12083     4.295548   0.00484267 -0.018741935 -0.0016878273 -0.0017051264          nan    151.51747   -13208.187   -14272.162
    7050       0.0705    299.38225    4.3539465  0.064458816   0.06586315   -2.3454885   -2.3499287          nan    154.75407   -13210.448   -14947.562
    7100        0.071    297.85468    4.3449056 0.0095985868 -0.0097755489 -0.0017057958 -0.0017067207          nan    153.96446   -13208.696   -14482.429
    7150       0.0715     303.8638    4.3509306 -0.053497584 -0.017918449   -2.4508519   -2.4148437          nan    157.07064   -13210.815   -14265.048
    7200        0.072    295.98076    4.3983491 -0.031275506 -0.043523316 -0.0016943735 -0.0017172294          nan    152.99581    -13205.76   -14411.834
    7250       0.0725    297.89557    4.4537102  0.018672295  0.057821183   -2.3180608   -2.3568831          nan    153.98559   -13205.753   -15100.679
    7300        0.073    301.10811    4.5039814   0.06372501  0.041003865 -0.001694738 -0.0017131383          nan    155.64619    -13206.42   -15362.367
    7350       0.0735    299.85611    4.4591378 -0.022374935  0.011252791   -2.3849438   -2.3566993          nan    154.99902   -13204.777   -14826.719
    7400        0.074    301.75346    4.4805148 -0.055810604 -0.037184991 -0.0016994462 -0.0017323667          nan    155.97978   -13204.754   -14625.064
    7450       0.0745    293.86488    4.5391231  -0.01962499  -0.02934878   -2.3272726   -2.2923495          nan    151.90208   -13199.673   -14967.164
    7500        0.075    297.72557     4.609548  0.061511101  0.045419079 -0.0016920261 -0.0017145143          nan    153.89772   -13200.642   -15721.594
    7550       0.0755    294.81197    4.5856025  0.035894362  0.026284155   -2.3495328   -2.3820498          nan    152.39165   -13198.123   -15492.603
    7600        0.076    299.26835    4.5825482 -0.035549121 -0.023023699 -0.0017105356 -0.0017106714          nan     154.6952   -13199.404   -15079.918
    7650       0.0765    300.56299    4.6266498 -0.036358873 -0.054277528   -2.3817709   -2.4196268          nan    155.36441   -13199.036   -15120.045
    7700        0.077    293.38467     4.690091  0.020642148 0.0045046244 -0.0016855446 -0.0017143256          nan    151.65386    -13194.29   -15717.459
    7750       0.0775    299.87955    4.7328839   0.05065798  0.038671721   -2.3552013   -2.3541717          nan    155.01113   -13196.601   -16074.045
    7800        0.078    298.85473    4.7378086 -0.003919178  0.033909117 -0.0016899863 -0.001730785          nan    154.48139   -13195.025   -15892.662
    7850       0.0785    295.12705    4.7277529 -0.059033236 -0.057102648   -2.3500333   -2.3640959          nan    152.55451   -13192.039   -15372.057
    7900        0.079    301.68056    4.8239052  0.018820017 0.0003996034 -0.0017033912 -0.0017164072          nan     155.9421   -13194.362    -16143.75
    7950       0.0795    293.03364    4.8260302 0.0029928673  0.010982885   -2.3252224   -2.3917383          nan     151.4724   -13188.819   -16133.353
    8000         0.08    297.51119    4.8405086   0.03297672  0.019940971 -0.001702151 -0.0016999831          nan     153.7869   -13190.066   -16311.421
    8050       0.0805    299.34164    4.8436061 -0.028174289 -0.00098157978   -2.3896681   -2.4025199          nan    154.73308   -13189.936   -16048.168
    8100        0.081    296.56636    4.8506139 -0.051407067 -0.016973168 -0.001690712 -0.0017074578          nan    153.29851   -13187.422   -15940.779
    8150       0.0815    297.38541    4.9434532 -0.016144964  0.029839807   -2.3886778   -2.3927392          nan    153.72188   -13186.764   -16523.827
    8200        0.082    300.24269    4.9801962  0.057729169  0.055111674 -0.0017006939 -0.0017070927          nan    155.19884   -13187.148    -16976.79
    8250       0.0825    295.74677    4.9761855 0.0038144273 -0.018230996    -2.326005   -2.3331622          nan    152.87485   -13183.721    -16539.23
    8300        0.083    296.28784    4.9888579 -0.013314461 -0.072836902 -0.0016763899 -0.0016974709          nan    153.15454   -13182.888   -16342.355
    8350       0.0835    301.84692    5.0460235  0.012438532  0.018952911   -2.3323843    -2.373909          nan    156.02809    -13184.65   -16924.717
    8400        0.084    301.63377     5.087587   0.04468856 0.0087819677 -0.001688211 -0.0017177495          nan    155.91791   -13183.421   -17136.858
    8450       0.0845     294.4379    5.0713813  0.030857022 -0.051251245   -2.2699227   -2.2802893          nan    152.19828   -13178.588   -16836.624
    8500        0.085    294.95823    5.1054048 -0.036500546 0.0040642006  -0.00166549 -0.0017127633          nan    152.46725   -13177.738   -16909.895
    8550       0.0855    299.59421     5.145155  0.013872156  0.020283314   -2.3789916   -2.3564296          nan    154.86364   -13178.998   -17264.368
    8600        0.086    293.09655    5.1623223 0.0081498692 -0.0074220347 -0.0016689378 -0.0017015049          nan    151.50492   -13174.502   -17210.167
    8650       0.0865    298.64801    5.1895849  -0.05194524  0.016822551   -2.3114478   -2.3562749          nan    154.37454   -13176.224   -17181.541
    8700        0.087    302.10535     5.260905 -0.0071423212  0.020998762 -0.0016856213 -0.001715688          nan    156.16168   -13176.863   -17582.538
    8750       0.0875    302.82582    5.2617446  0.047847579   0.05461382   -2.4035901   -2.4158215          nan     156.5341   -13176.075   -17880.687
    8800        0.088    296.71453    5.2534156 -0.0074919516 -0.026456729 -0.0016882286 -0.0016980046          nan     153.3751   -13171.765   -17398.223
    8850       0.0885    299.53281    5.3070394 -0.010963604 -0.016542276   -2.3521753   -2.4022702          nan     154.8319   -13172.047   -17598.445
    8900        0.089     297.5505    5.3549116  0.012822587 0.0011849929 -0.0016679415 -0.0017044491          nan    153.80722   -13169.847   -17896.397
    8950       0.0895    297.27859    5.3721665  0.017151839  0.016023063   -2.3957206   -2.3639415          nan    153.66667   -13168.527   -18017.805
    9000         0.09    299.90818    5.4014734  0.033859091 0.0093173659 -0.0016780155   -0.0016941          nan    155.02593   -13168.706   -18148.833
    9050       0.0905    298.93558    5.4223407 -0.038824449 -0.0043375622   -2.3844668   -2.3589451          nan    154.52318   -13167.007   -17930.595
    9100        0.091    293.90307    5.4294858 -0.0043172206 -0.033675289 -0.0016588763 -0.0016962027          nan    151.92182   -13163.212   -17971.644
    9150       0.0915    296.22094    5.4910122 0.0093248717  0.015374456   -2.3812139   -2.3236347          nan    153.11995   -13163.209   -18385.705
    9200        0.092    299.64819    5.5197664 0.0087843688  0.049321316 -0.0016707323 -0.0017059908          nan    154.89154   -13163.771   -18592.907
    9250       0.0925    295.67641    5.5301254 0.00050088898 -0.019589529    -2.368739   -2.3552721          nan    152.83848   -13160.511   -18370.123
    9300        0.093    296.57934    5.5279826 0.0029019445 -0.026274498 -0.001680191 -0.0016969046          nan    153.30522   -13159.759     -18348.7
    9350       0.0935    292.77811    5.5709958 -0.053120211 -0.019618969   -2.3085835   -2.3083119          nan    151.34032   -13156.574   -18327.522
    9400        0.094    296.71532    5.5990418  0.019557138  0.016629825 -0.0016767272 -0.0016899422          nan    153.37551   -13157.384   -18784.096
    9450       0.0945    296.66009    5.6509973  0.022452465  0.014395761   -2.3082102    -2.365079          nan    153.34696   -13156.123   -18959.485
    9500        0.095    299.53035    5.6705357 0.0061389212 -0.0056646993 -0.0016740151 -0.0017122906          nan    154.83063   -13156.369   -18903.366
    9550       0.0955    299.17434    5.7077539 -0.007840524 -0.033374533   -2.2867596   -2.3050535          nan     154.6466   -13154.936   -18888.463
    9600        0.096    293.60882    5.7020511 0.0034854801 0.0011863367 -0.0016615942 -0.001689421          nan    151.76972   -13150.811    -19022.41
    9650       0.0965    296.67567    5.7380248  0.013016304  0.041505575   -2.3662073      -2.2913          nan    153.35501   -13151.141   -19308.489
    9700        0.097    301.96286    5.7698878 0.0024852429   0.01257853 -0.0016675043 -0.001713278          nan    156.08802   -13152.613   -19283.172
    9750       0.0975    298.05251    5.7840203 -0.032961543  -0.01904069   -2.3820443   -2.3615157          nan    154.06672   -13149.323   -19106.727
    9800        0.098    299.52193    5.8441253 0.0096543151 0.0063679754 -0.0016659326 -0.0016845138          nan    154.82627   -13148.811   -19533.825
    9850       0.0985    295.40622    5.8625812  0.026940766  0.016118551   -2.2578324   -2.3714443          nan    152.69882   -13145.401   -19685.468
    9900        0.099    295.44308    5.8711818  -0.01153101  0.027269711 -0.001652433 -0.0017020273          nan    152.71787   -13144.138   -19623.068
    9950       0.0995     295.5608    5.9077567 -0.0013494789 -0.051515011   -2.4131155   -2.3486097          nan    152.77872   -13142.906   -19516.307
   10000          0.1    300.72513    5.9633603 0.0068624964 0.0081389887 -0.0016629896 -0.0017032384          nan    155.44822   -13144.275   -19927.873
   10050       0.1005    292.57979      5.94416 -0.026930837  0.017811467   -2.2499623   -2.2801322          nan    151.23781   -13138.764   -19783.469
   10100        0.101    297.00876    6.0026343  0.012510813 0.0036878069 -0.0016648187 -0.0016882774          nan    153.52719   -13139.746   -20062.776
   10150       0.1015    291.81813    6.0003924 0.0042061328 -0.013705162   -2.3207521   -2.3287765          nan    150.84409   -13135.751   -19969.645
   10200        0.102    300.12322    6.0297349  0.024842133 -0.015853109 -0.0016735504 -0.0016927208          nan    155.13709   -13138.727    -20129.08
   10250       0.1025    297.81456    6.0666693 -0.014541823 -0.024748096   -2.3501434   -2.3273605          nan    153.94372   -13136.214   -20091.264
   10300        0.103    299.29435    6.1030296  0.019831197  0.010751677 -0.0016632654 -0.0016812869          nan    154.70864   -13135.651   -20445.375
   10350       0.1035    295.33145    6.0989471  0.030078218  0.023459219   -2.3753991   -2.3286747          nan    152.66017   -13132.272   -20508.282
   10400        0.104    293.07747    6.1222272 -0.011560171  0.006666539 -0.0016571955 -0.0016850548          nan    151.49506   -13129.771   -20391.112
   10450       0.1045    300.34789     6.191339 -0.017136703  -0.02320947   -2.3022571   -2.4069053          nan    155.25322   -13132.177   -20503.309
   10500        0.105    296.79888    6.1910305 -0.023793835 -0.027123346 -0.0016524444 -0.0016921869          nan     153.4187   -13128.991   -20467.044
   10550       0.1055     292.5469    6.1730262 0.00072707002  0.015396531   -2.2713218   -2.2176033          nan     151.2208   -13125.449   -20630.499
   10600        0.106    299.76657    6.2546043   0.06431193  0.029646855 -0.0016542697   -0.0016858          nan    154.95273   -13127.825   -21161.877
   10650       0.1065    297.45185     6.277285   0.01138457  0.010921436   -2.3510613   -2.2826368          nan    153.75623   -13125.263   -20998.637
   10700        0.107    299.28575    6.3159878 -0.058843209 0.0088751701 -0.0016714301 -0.0016826924          nan    154.70419   -13124.827   -20886.733
   10750       0.1075     298.0767    6.3270774 -0.031686949 -0.025891406   -2.3884361   -2.3376316          nan    154.07922   -13122.819    -20898.33
   10800        0.108    292.71521    6.3511692 0.0050384992 0.0068728816 -0.0016559362 -0.0016744508          nan    151.30781   -13118.674   -21210.269
   10850       0.1085    296.83076    6.4044451   0.06074091  0.060444734    -2.395901   -2.3386537          nan    153.43518   -13119.403   -21752.103
   10900        0.109     298.8772    6.4305164 -0.00089408056  0.022392896 -0.0016566954 -0.0016881334          nan    154.49301   -13119.066   -21506.717
   10950       0.1095    295.12866     6.393375  -0.08414463 -0.033452319   -2.2815369   -2.3583664          nan    152.55535   -13115.719    -20919.26
   11000         0.11    299.97893    6.4676754 -0.019035911 -0.028130303 -0.0016606099 -0.0016727145          nan    155.06251   -13116.826   -21401.697
   11050       0.1105    289.50242    6.4626257  0.034956017  0.021953147   -2.2799004   -2.2700242          nan    149.64708   -13110.002   -21731.783
   11100        0.111     299.5863    6.5498947  0.091887315  0.056198958 -0.0016590174 -0.0016729945          nan    154.85955    -13113.79   -22326.603
   11150       0.1115    300.30372    6.5695839  0.012700448  -0.03492997   -2.3215782   -2.3851143          nan    155.23039   -13112.738   -21824.515
   11200        0.112     296.1484    6.5058518 -0.090590539 -0.080866067 -0.0016651675 -0.0016755133          nan    153.08246    -13109.15   -21114.651
   11250       0.1125    290.78729     6.553471  0.013420122 -0.014746013   -2.2588483   -2.2899002          nan    150.31124   -13104.969   -21840.484
   11300        0.113    297.24181    6.6636634  0.077111258  0.086382672 -0.0016532904 -0.0016692227          nan    153.64766   -13106.849   -22757.191
   11350       0.1135    289.87293     6.653388 -0.031679925  0.017132257   -2.2594302    -2.306797          nan     149.8386   -13101.596   -22129.468
   11400        0.114    298.06909    6.6496498 -0.050346638  -0.04614701 -0.0016481653 -0.001678933          nan    154.07529   -13104.366   -21843.854
   11450       0.1145    294.88476     6.678781 -0.031953089 -0.031800686   -2.3179149   -2.3446439          nan    152.42927   -13101.264   -22050.091
   11500        0.115    299.14704    6.7468172  0.032101357  0.064148609 -0.0016367621 -0.0016789671          nan    154.63249   -13101.998   -22810.224
   11550       0.1155    295.47516     6.739002  0.055725002   0.01406588   -2.3496506   -2.3333721          nan    152.73446   -13098.633   -22695.976
   11600        0.116    293.55793    6.7404774 -0.021520116 -0.039617234 -0.0016253419 -0.0016638281          nan    151.74342    -13096.17   -22264.467
   11650       0.1165    298.22774    6.7737658 -0.017291172 -0.029387786   -2.3899918   -2.3485174          nan    154.15729   -13097.105   -22423.623
   11700        0.117    296.00123    6.8133094 -0.020591757  0.018094833 -0.0016225638 -0.0016841116          nan    153.00639   -13094.472   -22702.708
   11750       0.1175     296.1151     6.872634  0.038751678  0.057192917   -2.2683722   -2.3028244          nan    153.06525   -13093.035   -23228.595
   11800        0.118    294.37801    6.8536084  0.021129618 -0.022425111 -0.0016217344 -0.0016629302          nan    152.16733   -13090.646   -22841.043
   11850       0.1185    294.66098    6.8435772 -0.043910959 -0.046590327   -2.3002624   -2.2946749          nan     152.3136   -13089.293   -22510.253
   11900        0.119    292.33603    6.8547663 -0.0061264443   0.01318044 -0.0016329699 -0.0016622022          nan     151.1118   -13086.595   -22872.734
   11950       0.1195    296.14747     6.928381  0.012201845  0.022338204   -2.2659978   -2.3539308          nan    153.08198   -13087.055   -23209.737
   12000         0.12    291.96554     6.947103 0.0022161909 0.0015750599 -0.0016247171 -0.0016639052          nan    150.92029   -13083.376   -23169.648
   12050       0.1205    295.37195    6.9820576 -0.019543024 -0.017361287   -2.2937466   -2.3374147          nan    152.68111   -13083.618   -23150.511
   12100        0.121    294.02049    6.9783208 -0.028391655 -0.024847618 -0.0016279139 -0.0016660836          nan    151.98252   -13081.395   -23083.605
   12150       0.1215    292.80837    7.0032141  0.039808476 -0.030484769   -2.2881198   -2.3022606          nan    151.35596   -13079.244   -23375.126
   12200        0.122    295.82714    7.0244468  0.044592407    0.0127764 -0.0016278516  -0.00165866          nan     152.9164   -13079.277   -23606.052
   12250       0.1225    293.54326    7.0317968 -0.013403551  0.014881979   -2.2742429   -2.3213563          nan    151.73583   -13076.562   -23444.251
   12300        0.123    298.01628    7.0698692 -0.0021911564 -0.017788043 -0.0016222083 -0.0016836998          nan    154.04799   -13077.332   -23499.633
   12350       0.1235    292.19043    7.0693825 -0.022211471 -0.0085847926   -2.2152205     -2.20671          nan    151.03654   -13072.774   -23461.954
   12400        0.124    294.43138    7.1635638 -0.00014925726  0.012730141 -0.0016224471 -0.0016594929          nan    152.19491   -13072.373   -23920.482
   12450       0.1245    292.51001    7.1576025  0.052895143   0.01253419   -2.2840869   -2.2618442          nan    151.20174   -13069.808   -24076.773
   12500        0.125    293.71105     7.158247 -0.059450622  0.019443144 -0.0016231347 -0.0016652847          nan    151.82256   -13068.865   -23727.465
   12550       0.1255    291.99985    7.1194733 -0.078024247 -0.024814821   -2.2780303   -2.2872329          nan    150.93803   -13066.416   -23388.781
   12600        0.126    295.59709    7.2102443  0.022693333 0.0097608152 -0.0016174748 -0.0016721103          nan    152.79748   -13066.711   -24142.328
   12650       0.1265    296.16157    7.3019053  0.066144777   0.06661142   -2.3195631   -2.3068405          nan    153.08927   -13065.406   -24782.205
   12700        0.127    293.71738    7.2596443  0.022766107 -0.0046522066 -0.0016123676 -0.0016592737          nan    151.82584   -13062.553   -24259.194
   12750       0.1275    295.41318    7.2782509 -0.037356356 -0.050102771   -2.3894747   -2.3042258          nan    152.70242   -13061.825   -23969.306
   12800        0.128    294.48612    7.2646706 -0.026622324 -0.027744471 -0.0016196272 -0.0016625182          nan    152.22321   -13059.747   -24034.346
   12850       0.1285      293.107    7.3210107  0.059263117 0.0040787351   -2.3085977    -2.236345          nan    151.51033    -13057.44   -24614.509
   12900        0.129    292.68474    7.3768856  0.051843994  0.012094012 -0.0016058754 -0.0016511424          nan    151.29206   -13055.618   -24802.745
   12950       0.1295    293.22202    7.4087713 -0.011929759 -0.036885372   -2.2452369   -2.3072362          nan    151.56978   -13054.283   -24533.187
   13000         0.13    298.82119    7.4376398 -0.029892625 -0.0014980496 -0.0016148775 -0.0016742802          nan    154.46405   -13055.545   -24687.497
   13050       0.1305    292.29786     7.400189 -0.034660802 -0.013053373   -2.2795996   -2.2817051          nan    151.09207   -13050.546   -24508.249
   13100        0.131    288.95533    7.4334339 0.0014185076  0.064310785 -0.0016011447 -0.0016517261          nan    149.36428   -13047.194   -24997.211
   13150       0.1315    296.49634    7.5050561  0.035734148  0.037700166   -2.2982438   -2.2896082          nan    153.26231   -13049.456   -25261.635
   13200        0.132      289.056    7.4317655  -0.04521195   -0.0264279 -0.0015875098 -0.0016524029          nan    149.41632   -13043.972   -24533.752
   13250       0.1325    301.37855    7.5567074 -0.024150184 -0.012293893   -2.4104581   -2.3354697          nan    155.78598   -13048.693   -25067.544
   13300        0.133    291.78828    7.5752073   -0.0170231  0.028215689 -0.0015823811 -0.0016465015          nan    150.82867   -13042.088       -25288
   13350       0.1335    289.48282    7.5764554 0.0037026621 0.0091534155   -2.2469749   -2.2105323          nan    149.63695   -13039.242   -25297.705
   13400        0.134    298.65123    7.6275136  0.036511732  0.028248571 -0.0016099009 -0.0016597469          nan     154.3762   -13042.323   -25640.913
   13450       0.1345    293.60653    7.5939243 -0.013293402 -0.056647229   -2.2938567   -2.3145196          nan    151.76854   -13038.043   -25079.946
   13500        0.135    290.77694    7.5446938 -0.035204153  -0.02024705 -0.0015946564 -0.0016494035          nan    150.30589   -13034.928   -24964.142
   13550       0.1355    293.22653    7.5881659  0.078418417  0.043680427   -2.2242095   -2.3090306          nan    151.57211   -13034.535   -25700.882
   13600        0.136    294.35019    7.6506164   0.03122526  0.016618964 -0.0016089973 -0.0016439788          nan    152.15294   -13033.454   -25661.535
   13650       0.1365    288.29495    7.6712496 -0.071272174 -0.068432518   -2.1705331   -2.2875294          nan    149.02292    -13028.64    -25105.15
   13700        0.137    296.81931    7.7330051 -0.0013165403 0.0083366643 -0.0015843028 -0.0016570468          nan    153.42926   -13031.354   -25800.084
   13750       0.1375    295.52647    7.7524241   0.01595603  0.049652472   -2.2782105   -2.3268069          nan    152.76098   -13028.995   -26060.109
   13800        0.138    291.25069    7.7123916  0.021712303 -0.0064641626 -0.0015960327 -0.0016451673          nan    150.55078   -13025.096   -25758.799
   13850       0.1385    288.55819    7.6958233 -0.022898302 -0.084094538   -2.2375098   -2.2740868          nan      149.159   -13022.024   -25296.101
   13900        0.139    292.21313    7.7793834 -0.018596694  0.033121535 -0.0015882011 -0.0016476906          nan    151.04827   -13022.219   -25979.694
   13950       0.1395    292.80851    7.7626524   0.03200342  0.059693509   -2.2433536   -2.2147888          nan    151.35603   -13020.818   -26181.164
   14000         0.14    290.78192    7.7739784 -0.018391636 0.00024523942 -0.0015797593 -0.0016401898          nan    150.30847   -13018.072   -25852.773
   14050       0.1405    292.55995    7.8008559 -0.054400551  0.010070867   -2.2222941   -2.2763243          nan    151.22755   -13017.273   -25855.087
   14100        0.141    290.98435    7.8449078 0.0028284285 -0.032554213 -0.0015860448 -0.0016367874          nan    150.41311   -13014.743   -26050.607
   14150       0.1415    296.18122    7.8575383  0.043051585  0.037247456   -2.2649533   -2.2877368          nan    153.09942   -13015.707   -26459.458
   14200        0.142    294.12159    7.8437331  -0.02390802 -0.0041379011 -0.0015849821 -0.0016404805          nan    152.03478   -13012.916   -26052.291
   14250       0.1425    287.19968    7.7478812 -0.033567345 -0.002019977   -2.1783818   -2.2208613          nan    148.45677   -13007.631   -25707.646
   14300        0.143    293.71432    7.8738105  0.019746234  0.023631537 -0.0015962699 -0.0016338577          nan    151.82426   -13009.286   -26390.628
   14350       0.1435     291.4975    7.9045649 0.0057878559  0.018934398   -2.2963869   -2.3199475          nan    150.67836   -13006.402   -26430.957
   14400        0.144     294.6357    7.8741604 -0.046018615 0.00047032948 -0.0015756694 -0.001658046          nan    152.30053   -13006.298   -26095.374
   14450       0.1445    292.14967    7.8781755 0.0080106477 -0.008594513   -2.2311077   -2.2735042          nan    151.01547   -13003.285   -26258.639
   14500        0.145     290.8319    7.8916896  0.021238627 -0.0060794099 -0.0015772366 -0.0016306226          nan     150.3343   -13000.867   -26356.163
   14550       0.1455     289.7379     7.878053  0.036487353 -0.022518208   -2.2963714   -2.2544643          nan     149.7688   -12998.563    -26306.74
   14600        0.146    291.05198    7.8755564 0.0084610282 -0.023920782 -0.0015675639 -0.0016321733          nan    150.44807    -12997.51   -26200.322
   14650       0.1465    290.14168    7.8880396  0.011861846  -0.01807914   -2.3089423   -2.2632949          nan    149.97752   -12995.301   -26272.741
   14700        0.147    289.85403    7.8562697  0.029594156 -0.0032762703 -0.0015707259 -0.0016303948          nan    149.82883   -12993.412   -26275.292
   14750       0.1475    284.83157    7.7802611 0.0071037338 -0.022309076   -2.2248616   -2.1713278          nan    147.23266   -12989.101   -25883.519
   14800        0.148    295.22257    7.7739472  0.010271893 -0.036002251 -0.0015750862 -0.001628751          nan    152.60389   -12992.754    -25827.39
   14850       0.1485    291.85515    7.6392409 -0.022401768 0.0090253166   -2.3129174   -2.2369117          nan    150.86323    -12989.31   -25419.548
   14900        0.149    295.96817    7.5426105  0.010334563   0.05186927 -0.0015826672 -0.0016306974          nan     152.9893   -12989.735   -25349.381
   14950       0.1495    295.25224    7.4039377  0.010039178 -0.001891253   -2.3138922   -2.2692435          nan    152.61922   -12987.716   -24706.952
   15000         0.15    304.02056    7.2650055 -0.071123596  0.034185168 -0.0016064509 -0.0016431079          nan    157.15167   -12990.627   -24093.557
   15050       0.1505    309.56698    7.1267705 -0.049078844  0.019062772   -2.4311725   -2.3911827          nan    160.01867   -12991.928   -23655.848
   15100        0.151    306.69809     6.911152 -0.068385816   0.01273007 -0.0016174605 -0.0016444882          nan    158.53572   -12988.961   -22851.654
   15150       0.1515    319.26741    6.7401749  0.038975677  0.063540545   -2.4961506   -2.3756692          nan    165.03294   -12994.037    -22808.97
   15200        0.152    319.28619    6.4117552  0.048372635 0.0019629842 -0.0016520151 -0.0016527931          nan    165.04264   -12992.724   -21540.303
   15250       0.1525     335.4747    6.0896801  0.031858152 -0.071686451   -2.6504104   -2.5580086          nan    173.41067   -12999.863   -20166.173
   15300        0.153    337.88645    5.7313163 -0.0086257228 -0.056823532 -0.0016817366 -0.0016767795          nan    174.65733   -13000.039   -18886.224
   15350       0.1535    334.72084    5.3875431  0.072478331  -0.03801648   -2.6014526   -2.4943074          nan    173.02099   -12997.514    -18073.35
   15400        0.154     342.0304    5.0719578  0.057930295  0.068710984 -0.001704307 -0.0016800434          nan    176.79939   -13000.538   -17328.664
   15450       0.1545     346.5106    4.7211677  0.004679539 -0.010202206   -2.7608506   -2.6210072          nan    179.11525   -13002.263   -15718.817
   15500        0.155    347.72231    4.3780797 -0.065055253 -0.0039264244 -0.0017172479 -0.0016962677          nan     179.7416   -13002.419    -14363.66
   15550       0.1555    345.72085    4.1566868 -0.078497099  0.058041973   -2.7394403   -2.6392554          nan    178.70702   -13001.037   -13787.439
   15600        0.156    352.91346    4.0470676 -0.00032413902   0.11750658 -0.0017124802 -0.0016953723          nan    182.42496   -13004.544   -13880.834
   15650       0.1565    355.30306    3.9546563  -0.03687998  0.018411789   -2.7638122   -2.7167913          nan    183.66017   -13005.686   -13120.627
   15700        0.157    353.64653    3.7956129  0.017236398 -0.020414122 -0.0017175663 -0.0016997963          nan     182.8039   -13004.714   -12641.451
   15750       0.1575    361.69497    3.7141687   0.06307154  0.023943058   -2.8437085   -2.7094333          nan    186.96422   -13008.807   -12670.611
   15800        0.158    360.52666    3.6251051   0.01936415 -0.059177906 -0.0017331503 -0.0017260868          nan    186.36031   -13008.159   -11950.971
   15850       0.1585    364.75668    3.6227972  0.032174451 -0.079266508    -2.951503   -2.7917564          nan    188.54686   -13010.272   -11919.017
   15900        0.159    362.85533    3.5756819 -0.044065223  0.017372756 -0.0017082883 -0.0017252447          nan    187.56403   -13009.253   -11829.965
   15950       0.1595    363.19391    3.5803512 -0.013534165  0.076080543   -2.8438337    -2.865105          nan    187.73904   -13009.373   -12142.992
   16000         0.16    359.91317    3.4550027  0.011224552  0.079797756 -0.0017127487 -0.0017343349          nan    186.04319   -13007.653   -11820.083
   16050       0.1605    360.95119    3.4214138 -0.010860946  0.021842636   -2.8877586   -2.8540215          nan    186.57975   -13008.178   -11441.318
   16100        0.161    364.10444    3.3476955 -0.043325111 -0.037770807 -0.0017224986 -0.0017354322          nan    188.20971   -13009.804   -10888.665
   16150       0.1615    368.76526    3.2747162 -0.028793028 0.0003051527   -2.9265438   -2.8811248          nan    190.61894   -13012.249   -10820.761
   16200        0.162    368.50231    3.3067163  0.061524771 -0.056567645 -0.0017211657 -0.0017451695          nan    190.48302   -13012.162   -11038.911
   16250       0.1625     360.1726    3.3071438  0.061398264 -0.051713849   -2.9066307   -2.8342823          nan    186.17729   -13007.922   -11056.094
   16300        0.163    363.11155    3.2374907  0.042433084  0.043106488 -0.0017230528 -0.0017315273          nan    187.69647   -13009.558   -11076.768
   16350       0.1635    362.59563    3.1608747 -0.039909799 -0.011993331   -2.8890703    -2.954532          nan    187.42979   -13009.419   -10363.239
   16400        0.164    368.58005    3.1163309 -0.054304993  -0.06283763 -0.001722081 -0.0017595834          nan     190.5232   -13012.631   -9997.2944
   16450       0.1645    372.76075    3.1361261  0.029011491  0.050938188   -2.9478806   -2.9471812          nan    192.68425   -13014.936   -10720.253
   16500        0.165    363.92767    3.0526071   0.04346032  0.049082515 -0.0017123995 -0.001749404          nan    188.11833   -13010.527   -10483.833
   16550       0.1655    375.26214    3.0226861  0.042125017  0.027289623   -2.9802102   -2.9638636          nan    193.97725   -13016.577   -10307.003
   16600        0.166    371.62968    2.9128993 -0.031234485 -0.049523321 -0.001744617 -0.0017548384          nan    192.09959   -13014.888   -9440.4717
   16650       0.1665    367.44987    2.7947826 -0.066465404  0.023118567   -2.9160245   -2.8783704          nan      189.939    -13012.95   -9171.4525
   16700        0.167    375.99725    2.7648834 0.0035489738  0.063080841 -0.0017398766 -0.0017793518          nan    194.35723   -13017.633   -9438.3774
   16750       0.1675    371.57801    2.6312173  0.039958914 0.0070719807   -2.9765742   -2.9325526          nan    192.07288   -13015.646   -8927.4941
   16800        0.168    374.14634    2.5423812 -0.004835991 -0.015992686 -0.0017513861 -0.0017645801          nan    193.40048   -13017.298    -8405.175
   16850       0.1685      381.124     2.481223 -0.040733142  0.049126321   -2.9592313    -3.133403          nan    197.00731   -13021.273   -8298.7207
   16900        0.169    377.06017    2.3996955  0.025391186 -0.063563393 -0.0017656646 -0.0017554967          nan    194.90667    -13019.55   -7871.7444
   16950       0.1695     383.5371    2.2911985   0.09374905 -0.029740813   -3.0599732   -3.1641325          nan    198.25467   -13023.327   -7850.6892
   17000         0.17    379.69442    2.2146934  0.060914119 0.0058934643 -0.0017724006 -0.0017565931          nan    196.26834   -13021.827   -7605.0034
   17050       0.1705    383.21702    2.0259605 -0.057646675 -0.0090487664   -3.1139336   -3.0941882          nan    198.08922   -13024.158   -6530.8835
   17100        0.171    382.15449    1.9527077 -0.078602414 -0.0060991189 -0.0017872534 -0.0017681866          nan    197.53998   -13024.114   -6226.6871
   17150       0.1715    390.65633    1.8887578 -0.029227298  0.061931236   -3.1395304   -3.1388109          nan    201.93468   -13029.068   -6404.8723
   17200        0.172    392.76807    1.8357501 -0.0016333964  0.068984594 -0.0017808733 -0.0017962091          nan    203.02626   -13030.769    -6343.671
   17250       0.1725    389.99611    1.7162119 -0.054745577  0.099005688    -3.137156   -3.1755455          nan     201.5934   -13030.018   -5868.2401
   17300        0.173    387.15937    1.5332674 -0.020325244 -0.0051990511 -0.0018021722 -0.0017908767          nan    200.12706   -13029.259   -5025.8105
   17350       0.1735    385.15763    1.5110376 -0.036093519  -0.10308301     -3.10926   -3.0803553          nan    199.09234   -13028.855   -4572.8701
   17400        0.174    390.57938    1.5910174 -0.0060414409  0.025585585 -0.0017895831 -0.0017856144          nan     201.8949   -13032.353   -5368.5386
   17450       0.1745     384.1063    1.5527367  0.056312722  0.040261646   -3.0481038   -3.0778347          nan    198.54889   -13029.683   -5497.7035
   17500        0.175    391.28815    1.4632812  0.087926805 0.0058239707 -0.0017979421 -0.001797803          nan    202.26127   -13034.099   -5190.1067
   17550       0.1755    395.84288    1.4590561   0.07744611 -0.087129541   -3.1551861   -3.1488206          nan    204.61566   -13037.179   -4831.2421
   17600        0.176    395.75652    1.4574467 0.0016722445  -0.12201378 -0.0017947862 -0.0018302603          nan    204.57102   -13037.887   -4457.0171
   17650       0.1765    392.83818    1.4650782 -0.018908973 -0.037848887   -3.2285324   -3.1102574          nan     203.0625   -13037.153   -4694.4012
   17700        0.177    398.90382    1.6160879  0.095692735  0.055333214 -0.0018132567 -0.0018172011          nan     206.1979   -13041.051   -5890.3797
   17750       0.1775    402.05164    1.6190144  0.041591843   0.12626917   -3.3212503   -3.0867793          nan    207.82504   -13043.454   -5956.2515
   17800        0.178    406.51766    1.3685035  -0.06015576  0.045226521 -0.0018331532 -0.0018146937          nan    210.13358   -13046.554   -4511.9142
   17850       0.1785    403.12593    1.2814832  -0.15996605 -0.069381455   -3.3107238   -3.2182968          nan    208.38036   -13045.607   -3507.1191
   17900        0.179    403.86429     1.362311 -0.033662106  0.028568733 -0.0018306745 -0.0018224156          nan    208.76202   -13046.859   -4524.0589
   17950       0.1795    404.93553    1.4269753  0.056394132   0.13666424    -3.203007   -3.2149543          nan    209.31576   -13048.273   -5400.1122
   18000         0.18    407.81479    1.3546732   0.13564015  0.061893527 -0.001848675 -0.0018225758          nan    210.80408   -13050.677   -5174.0228
   18050       0.1805      411.591    1.2389993 -0.010407261  -0.05374392   -3.2834962   -3.3506006          nan    212.75605   -13053.548   -3916.1603
   18100        0.181    409.64188    1.1754713 -0.057073209  -0.20378237 -0.0018619692 -0.0018359378          nan    211.74852   -13053.432   -3048.7192
   18150       0.1815    411.17805    1.2158507  0.009822922 -0.056779603   -3.3154439   -3.4100105          nan    212.54259   -13055.232   -3896.3133
   18200        0.182    405.70759    1.2827927   0.11026115  0.084096093 -0.0018531807 -0.0018200018          nan    209.71484   -13053.351   -4923.8331
   18250       0.1825    414.08035    1.3014939  0.063108558   0.13471345   -3.3828587   -3.3434282          nan    214.04282   -13058.655   -4997.7197
   18300        0.183    411.14037    1.1682992   -0.1015738 -0.025194645 -0.001838479 -0.0018492436          nan    212.52311   -13058.092   -3471.7692
   18350       0.1835    407.68327    1.1290221  -0.11180324 -0.074161023   -3.3119686     -3.31169          nan    210.73609   -13057.243   -3143.5262
   18400        0.184    413.40339    1.1873292  0.031672072  0.061322204 -0.0018524424 -0.0018382424          nan    213.69289   -13061.185    -4267.745
   18450       0.1845    409.51187    1.1821528   0.13072436  0.020107133   -3.3367526   -3.2841416          nan    211.68132   -13060.176   -4443.2809
   18500        0.185     411.4069    1.0979031  0.067985641 -0.036154967 -0.0018457157 -0.0018605989          nan    212.66088    -13062.21   -3765.7792
   18550       0.1855    418.28181    1.0097126  0.017648244  -0.09057091   -3.3791645   -3.3877466          nan     216.2146   -13066.824   -3122.6331
   18600        0.186    415.78492   0.95073773 -0.074940763 -0.031755127 -0.0018665254 -0.0018735811          nan    214.92393   -13066.586   -2813.4728
   18650       0.1865     414.6891   0.96743062 -0.014297429 -0.011833429   -3.4067069   -3.4219516          nan    214.35749   -13067.087   -3137.6659
   18700        0.187    407.15103    1.0483484  0.025364924   0.10177936 -0.0018587776 -0.0018355941          nan    210.46097   -13064.222   -3918.3091
   18750       0.1875    417.02863    1.0167717 -0.039711883  0.048223459   -3.3922452   -3.4222507          nan    215.56682   -13070.375    -3417.611
   18800        0.188    414.42847    0.9619183 -0.049335527  0.018947268 -0.0018539484 -0.0018694415          nan    214.22277   -13070.102   -3105.1001
   18850       0.1885    418.13968   0.91723668  0.036316617 -0.062688048   -3.4789344   -3.4148812          nan    216.14113   -13073.089   -2969.5508
   18900        0.189    413.13697   0.95666965   0.08651165 -0.061218342 -0.0018694668 -0.0018438272          nan    213.55518   -13071.573   -3273.2099
   18950       0.1895    414.62588    1.0968674  0.075894004 0.0045338374   -3.3891176   -3.3067275          nan    214.32481   -13073.424   -3924.3174
   19000         0.19    404.68701    1.0785285 -0.049953746 -0.010254662 -0.0018226493 -0.0018445533          nan     209.1873   -13069.318   -3394.4004
   19050       0.1905     417.9898     1.167389 -0.037750638  0.063169018   -3.3734867   -3.4203569          nan    216.06366   -13077.205   -3976.0246
   19100        0.191    408.74635    1.0938976 -0.044617618   0.05119539 -0.0018579339 -0.0018463538          nan    211.28562   -13073.469   -3668.2512
   19150       0.1915    412.61364    1.1561929 -0.026460128 0.0098700505   -3.4033906   -3.3819963          nan    213.28466   -13076.513   -3798.6761
   19200        0.192    424.29872    1.2267294  0.020991878 -0.00087700265 -0.001880453 -0.0018648988          nan    219.32481   -13083.591   -4156.1477
   19250       0.1925    413.85043    1.2587886  0.057799821 -0.079879113   -3.4167685   -3.2973288          nan    213.92397   -13079.232   -4122.3643
   19300        0.193    416.40341    1.3043736   0.12121524 -0.057169341 -0.0018335686 -0.001874598          nan    215.24364   -13081.596   -4561.3984
   19350       0.1935    414.41568    1.3480591  0.039266983 -0.089024876   -3.3178996   -3.4303244          nan    214.21615   -13081.651   -4327.6707
   19400        0.194    416.73492     1.305128  0.022209319  0.052278979 -0.0018706646 -0.001859806          nan      215.415   -13083.883   -4598.7209
   19450       0.1945    411.51137    1.2689652 -0.046798522  0.060517901    -3.402471   -3.3788728          nan    212.71489   -13082.152   -4275.6152
   19500        0.195    409.75983    1.1540679 -0.038616738  0.067029986 -0.0018593085 -0.0018704374          nan    211.80949   -13082.239   -3941.6039
   19550       0.1955    408.79631    1.1350381 -0.013343913 -0.052341632   -3.2224149   -3.3828604          nan    211.31144   -13082.765   -3564.5086
   19600        0.196    410.44065    1.2025847 -0.046174651 -0.028864944 -0.0018763131 -0.0018345449          nan    212.16142   -13084.609   -3758.4838
   19650       0.1965    406.29645    1.2361511 0.0033384422  0.048176759   -3.3306395   -3.2213628          nan    210.01923   -13083.467   -4292.2212
   19700        0.197    411.18681     1.194101  0.066357446  0.078022778 -0.0018625871 -0.0018558368          nan    212.54712   -13087.005    -4461.604
   19750       0.1975    412.89506    1.1645585  0.025107153  -0.01793132   -3.3310168   -3.2526365          nan    213.43013   -13088.926    -3905.781
   19800        0.198    404.05349    1.0724971  -0.11986189  -0.12866493 -0.0018445834 -0.0018723915          nan    208.85982   -13085.358   -2746.5677
   19850       0.1985    406.43138    1.1333225  0.031244558 -0.083534394   -3.2022574   -3.3836754          nan    210.08898   -13087.618   -3603.4424
   19900        0.199    412.73965    1.2414044   0.13286855   0.08738096 -0.001855877 -0.0018435881          nan     213.3498   -13091.886   -4872.1798
   19950       0.1995    410.58819    1.2056831   0.02645145   0.11659084   -3.3355586   -3.3036815          nan    212.23768   -13091.811   -4495.7512
   20000          0.2    410.43872    1.1150869 -0.084432827 -0.058750672  -0.00186537 -0.0018443083          nan    212.16042    -13092.73   -3239.6782
Loop time of 1072.58 on 4 procs for 20000 steps with 4000 atoms

Pair  time (%) = 994.805 (92.7487)
Neigh time (%) = 0.463981 (0.0432584)
Comm  time (%) = 44.5519 (4.15371)
Outpt time (%) = 0.193999 (0.0180871)
Other time (%) = 32.5657 (3.0362)

######################################
# SIMULATION DONE
print "All done"
All done
