# ----------------------- ATOM DEFINITION ----------------------------
lattice		fcc 4.05
Lattice spacing in x,y,z = 4.05 4.05 4.05
region		whole block 0 12 0 12 0 12
create_box	1 whole
Created orthogonal box = (0 0 0) to (48.6 48.6 48.6)
lattice 	fcc 4.05 orient x 1 0 0 orient y 0 1 0 orient z 0 0 1
Lattice spacing in x,y,z = 4.05 4.05 4.05
create_atoms	1 region whole
Created 6912 atoms

# ------------------------ FORCE FIELDS ------------------------------

#****************USE THIS TO TEST******************
pair_style	eam/rad
pair_coeff 		* * Al99.PC0.05.eam.alloy.rad.txt Al # pc = 0.5   error generating

# to test with error = 0 use this potential
# pair_coeff	* * Al99.eam.alloy.005pcrad_NULL_noerror Al

#****************USE THIS TO RUN REFRENCE***********
# pair_style	eam/alloy
# pair_coeff	* * Al99.eam.alloy Al

# ------------------------- SETTINGS ---------------------------------
compute csym all centro/atom fcc
compute peratom all pe/atom

######################################
# EQUILIBRATION
reset_timestep	0
timestep	0.001 # default
# timestep	0.0001 # tiny time step
velocity all create 300 12345 mom yes rot no
fix 1 all npt temp 300 300 1 iso 0 0 1 drag 1

# Set thermo output
thermo 50
# thermo 1 # debug mode

# thermo_style custom step lx ly lz press pxx pyy pzz pe temp
# IMPLEMENTATION HERE

# VERSION add rad variables .v1 .v2
# thermo_style custom step lx ly lz press pxx pyy pzz pxxrad pyyrad pzzrad pe temp

# VERSION ublb separation .v3
thermo_style custom step lx ly lz press pxx pxxrad pyy pyyrad pzz pzzrad pe temp

# Run for at least 10 picosecond (assuming 1 fs timestep)
run 	20000 # default
Step Lx Ly Lz Press Pxx Pxxrad Pyy Pyyrad Pzz Pzzrad PotEng Temp
0         48.6         48.6         48.6     2496.386    2451.7623    242.99145    2520.4586    242.99145     2516.937    242.99145    -23224.32          300
Averages over the last 201 of 401 rows, steps 10000 to 20000:
Lx Ly Lz Press Pxx Pxxrad Pyy Pyyrad Pzz Pzzrad PotEng Temp
48.7647 48.7647 48.7647 -1.07398 -22.9013 239.622 -9.37947 239.619 29.0589 239.627 -22976.5 278.483
Loop time of 1511.94 on 4 procs for 20000 steps with 6912 atoms

Pair  time (%) = 1410.35 (93.2803)
Neigh time (%) = 0 (0)
Comm  time (%) = 72.8162 (4.81607)
Outpt time (%) = 0.0737332 (0.00487672)
Other time (%) = 28.7082 (1.89876)

# run 	200000

# Use this if debug
# run 	1000
# run 200
unfix 1

# Store final cell length for strain calculations
variable tmp equal "lx"
variable L0 equal 48.782905480623
Initial Length, L0: 48.782905480623

######################################
# DEFORMATION
reset_timestep	0
set atom * xrad 0 yrad 0 zrad 0 vxrad 0 vyrad 0 vzrad 0
  6912 settings made for xrad
  6912 settings made for yrad
  6912 settings made for zrad
  6912 settings made for vxrad
  6912 settings made for vyrad
  6912 settings made for vzrad
fix		1 all npt temp 300 300 1 y 0 0 1 z 0 0 1 drag 1

variable srate equal 1.0e10
# variable srate equal 1.0e9 # tiny time step

variable srate1 equal "v_srate / 1.0e12"
fix		2 all deform 1 x erate 0.01 units box remap x

# Output strain and stress info to file
# for units metal, pressure is in [bars] = 100 [kPa] = 1/10000 [GPa]
# p2, p3, p4 are in GPa
variable strain equal "(lx - v_L0)/v_L0"
variable p1 equal "v_strain"
variable p2 equal "-pxx/10000"
variable p3 equal "-pyy/10000"
variable p4 equal "-pzz/10000"

# IMPLEMENTATION HERE
variable p5 equal "-pxxrad/10000"

# VERSION add rad variables
variable p6 equal "-pyyrad/10000"
variable p7 equal "-pzzrad/10000"

# VERSION ublb coupled/decoupled scheme
# variable p6 equal "-pxxub/10000"
# variable p7 equal "-pxxlb/10000"

# Use cfg for AtomEye
# dump 		1 all cfg 250 dump.tensile_*.cfg mass type xs ys zs c_csym c_peratom fx fy fz
# dump_modify 1 element Al

# print output to a text file every n timesteps
# dump		2 all custom 50 dump.xyz_rvf_rad.tensile_*.txt mass type id x y z vx vy vz fx fy fz xrad yrad zrad vxrad vyrad vzrad fxrad fyrad fzrad # use for rad developement
# dump		2 all custom 50 dump.xyz_rvf_rad.tensile_*.txt mass type id x y z vx vy vz fx fy fz xrad yrad zrad vxrad vyrad vzrad fxrad fyrad fzrad xub yub zub vxub vyub vzub fxub fyub fzub xlb ylb zlb vxlb vylb vzlb fxlb fylb fzlb # use for ublb developement

# Display thermo
thermo 	50
# thermo 1
# thermo_style	custom step v_strain temp v_p2 v_p3 v_p4 ke pe press

# IMPLEMENTATION HERE
thermo_style	custom step v_strain temp v_p2 v_p3 v_p4 v_p5 v_p6 v_p7 ke pe press
run	20000
Step strain Temp p2 p3 p4 p5 p6 p7 KinEng PotEng Press
0 -4.3696213e-16    294.42241  0.012090582  0.024103413 0.0035848933 -0.023908529 -0.023908623  -0.02391838    263.01251   -22956.783    -132.5963
     100        0.001    300.19273  0.079307839 -0.0060134967  0.014027974 -0.023899323 -0.023904597          nan    268.16722   -22961.701   -291.07439
     200        0.002    300.31323   0.14122088 -0.014259365 -0.018619634 -0.023888797 -0.023908278          nan    268.27488   -22961.489   -361.13961
     300        0.003    295.92217   0.21972622  0.020581645  0.024873053 -0.023838815 -0.023864927          nan    264.35226   -22957.154   -883.93639
     400        0.004    295.16568   0.23443856 -0.022615856 -0.016421359 -0.023851988 -0.023885312          nan    263.67648   -22956.005   -651.33781
     500        0.005    300.86619   0.33573859  0.023443792  0.030422666 -0.023813712 -0.023858527          nan    268.76884   -22960.563   -1298.6835
     600        0.006    297.46425   0.38752585 0.0063780934 -0.020931922 -0.023810153 -0.023850158          nan    265.72983    -22956.92   -1243.2401
     700        0.007    297.24252   0.44311835 0.0017731224 -0.011871961 -0.023790364 -0.023840476          nan    265.53176   -22956.057   -1443.3984
     800        0.008    294.34279   0.51320319 -0.012319015 0.0085432455 -0.023775542 -0.023826627          nan    262.94138   -22952.745   -1698.0914
     900        0.009    298.21644   0.59149926  -0.02104811 0.0091122583  -0.02375104 -0.023814347          nan    266.40177   -22955.414    -1931.878
    1000         0.01    297.49266   0.66665883 -0.0072261886  0.024564068 -0.023732388 -0.023795327          nan    265.75521   -22953.929    -2279.989
    1100        0.011     298.6668   0.70132904 -0.0022158583 -0.0083765424 -0.023728236 -0.023800383          nan    266.80408   -22954.081   -2302.4555
    1200        0.012    298.03769   0.79875889 0.0037700197  0.023461974 -0.023695918 -0.023771174          nan     266.2421   -22952.587    -2753.303
    1300        0.013    300.11928   0.84626798 0.0036983382 -0.0099357726  -0.02369192 -0.023770093          nan    268.10162   -22953.463   -2800.1018
    1400        0.014    296.88312   0.92575336 0.0021857943 -0.0054823402  -0.02366691 -0.023749898          nan     265.2107   -22949.541   -3074.8561
    1500        0.015    297.58973   0.96649204 -0.0020404599 0.0017535111 -0.023659146 -0.023748774          nan    265.84193   -22949.105   -3220.6836
    1600        0.016    298.08266    1.0265851  0.018207081 -0.023699798 -0.023642468 -0.023733119          nan    266.28226   -22948.432   -3403.6414
    1700        0.017     294.3183    1.0849322  0.017094225 -0.016503827 -0.023630107 -0.023724385          nan     262.9195   -22943.911   -3618.4087
    1800        0.018    295.63528    1.1332693 -0.00082817483 -0.016117438 -0.023623613  -0.02372109          nan    264.09598   -22943.899    -3721.079
    1900        0.019    297.28359    1.2225608 -0.0022412515  0.026355956 -0.023588171 -0.023693721          nan    265.56845   -22944.134   -4155.5849
    2000         0.02    299.24477    1.2753475 0.0024742404 -0.0015624753 -0.023588661 -0.023693928          nan     267.3204   -22944.612   -4254.1974
    2100        0.021    296.18991    1.3511535 0.0081329827 -0.019187499 -0.023566823 -0.023678189          nan    264.59144   -22940.567   -4466.9967
    2200        0.022    296.68443    1.4217363 0.0021040985 0.0032496512  -0.02354516 -0.023656963          nan     265.0332   -22939.651   -4756.9668
    2300        0.023    298.28169    1.4737972 -0.028912289 -0.0090624085 -0.023550707 -0.023669885          nan    266.46007   -22939.683   -4786.0748
    2400        0.024    301.97864    1.5513312 0.0019924445  0.010352486 -0.023525694 -0.023636607          nan    269.76261   -22941.556   -5212.2539
    2500        0.025    302.44067    1.5945245   0.02630236 -0.015743401 -0.023518891 -0.023628121          nan    270.17535   -22940.496   -5350.2781
    2600        0.026    301.05513     1.684284  0.021245501 0.0063255091 -0.023495733  -0.02360725          nan    268.93763   -22937.742   -5706.1833
    2700        0.027    297.10595     1.719449 -0.0071895507  0.011688404 -0.023489001 -0.023607355          nan    265.40976   -22932.663   -5746.4928
    2800        0.028    295.54133    1.7889353 -0.028788876 -0.0036040073 -0.023475713 -0.023598527          nan    264.01205   -22929.675   -5855.1414
    2900        0.029    298.02143    1.8619501  0.018056256  0.016753062 -0.023449197 -0.023574909          nan    266.22757   -22930.252   -6322.5312
    3000         0.03    300.60198    1.8999597 -0.012125309  -0.01199202 -0.023458276 -0.023588218          nan    268.53282   -22930.873   -6252.8079
    3100        0.031    297.13731    1.9794062  0.022529762 -0.0029567969  -0.02343423 -0.023557482          nan    265.43777   -22926.064   -6663.2637
    3200        0.032    299.10889    2.0623284  0.011871537 0.0053173581 -0.023425907 -0.023556381          nan    267.19902   -22926.059   -6931.7245
    3300        0.033    297.48708    2.1044186 -0.0041394264 -0.030436691 -0.023416977 -0.023552391          nan    265.75023   -22922.805   -6899.4751
    3400        0.034    300.87501    2.1739322  0.035004723   0.01102439 -0.023391133 -0.023521352          nan    268.77672   -22923.984   -7399.8709
    3500        0.035    300.04516    2.2258279 -0.017152332  0.011158006 -0.023392697 -0.023529959          nan     268.0354   -22921.359   -7399.4451
    3600        0.036    297.87432    2.2957564 -0.0029715804  0.037462624 -0.023367481 -0.023509228          nan    266.09616   -22917.488   -7767.4916
    3700        0.037    296.91627    2.3290209 -0.011570185 -0.020532129 -0.023368323 -0.023513892          nan    265.24031   -22914.661   -7656.3954
    3800        0.038    297.50999    2.4155826 0.0083085768  0.027431333 -0.023343805 -0.023484656          nan    265.77069   -22913.186   -8171.0751
    3900        0.039    301.12811    2.4628871 0.0024929693 0.0076666794 -0.023341577 -0.023484774          nan    269.00282   -22914.372   -8243.4891
    4000         0.04    299.26135    2.5098841  -0.01878609  0.023526086 -0.023331757 -0.023480443          nan    267.33521   -22910.627   -8382.0803
    4100        0.041    301.89078    2.5951416  0.026718002  0.025789562 -0.023306428 -0.023456106          nan    269.68412   -22910.855   -8825.4972
    4200        0.042    298.68859    2.6498056 0.0054865239 -0.010570787 -0.023301082 -0.023449792          nan    266.82355    -22905.83   -8815.7379
    4300        0.043    299.22895    2.6823342 -0.0011094993 0.0087596387 -0.023294283 -0.023449237          nan    267.30627    -22904.11   -8966.6143
    4400        0.044    298.37183    2.7460796  0.031759607 -0.00018234778 -0.023277103  -0.02342955          nan    266.54059   -22901.107   -9258.8564
    4500        0.045    297.20095    2.8223492 -0.010542318  0.011327849 -0.023265524 -0.023423112          nan    265.49462   -22897.781   -9410.4491
    4600        0.046     297.5727    2.8687664   -0.0270374  0.017459228 -0.023255025 -0.023415715          nan    265.82671   -22895.792   -9530.6275
    4700        0.047    298.46993    2.9650912  0.010127486 0.0062549945 -0.023233089 -0.023393801          nan    266.62822   -22894.222   -9938.2457
    4800        0.048    298.21299    3.0068107  0.016612574 -0.0098219715 -0.023224374 -0.023385231          nan    266.39869   -22891.576   -10045.338
    4900        0.049     301.1692    3.0698547  0.013246035 0.0018516261 -0.023210295 -0.023379069          nan    269.03952   -22891.758   -10283.175
    5000         0.05    300.68304    3.1450832  0.013309609  0.021108186 -0.023188058 -0.023351695          nan    268.60523   -22888.819   -10598.337
    5100        0.051    297.92206    3.1680434 -0.015326854 -0.003911067 -0.023196038 -0.023370644          nan     266.1388   -22883.819   -10496.018
    5200        0.052    302.09054    3.2597461   0.02194846  0.019979304 -0.023167572 -0.023340095          nan    269.86257   -22884.962   -11005.579
    5300        0.053    301.17452    3.3255966 -0.0049711497   0.01940093 -0.023153681 -0.023332238          nan    269.04428   -22881.521   -11133.421
    5400        0.054    297.71666    3.3637597 -0.021554039 0.0064926427 -0.023149465 -0.023332348          nan    265.95531   -22875.758   -11162.328
    5500        0.055    298.23017    3.4171028 -0.00016772477  0.002787692 -0.023131156  -0.02331174          nan    266.41404   -22873.504   -11399.076
    5600        0.056    297.68811     3.488224 -0.0014306493 -0.015542754 -0.023118477 -0.023297543          nan    265.92981   -22870.278   -11570.835
    5700        0.057    294.53154    3.5440337 -0.0044251269  0.027048956 -0.023095531 -0.023278506          nan    263.10999    -22864.66   -11888.858
    5800        0.058    299.49226    3.5959861 -0.020094253 -0.018408259 -0.023098854 -0.023287978          nan    267.54149   -22866.253   -11858.279
    5900        0.059    300.94051    3.6718317 -0.0042129998 0.0062727083  -0.02307467 -0.023262354          nan    268.83524   -22864.687   -12246.305
    6000         0.06     296.6761    3.7229957 -0.0067245594 0.0045610274 -0.023061076 -0.023253134          nan    265.02576   -22857.967   -12402.774
    6100        0.061    297.43535    3.7715868 -0.0059367421 -0.034990951 -0.023053942 -0.023250472          nan    265.70401   -22855.697    -12435.53
    6200        0.062    296.58938    3.8447489  0.024831373  -0.02543623 -0.023027757 -0.023220129          nan    264.94829   -22851.947   -12813.813
    6300        0.063    296.01085    3.8824638 -0.017105304   -0.0260817 -0.023027034 -0.023225194          nan    264.43148   -22848.389   -12797.589
    6400        0.064    299.45135    3.9593597 0.0023617535 0.0094966095  -0.02300547 -0.023204764          nan    267.50494   -22848.398   -13237.394
    6500        0.065    296.54128    3.9951183 0.0031358897 -0.025506063 -0.022997396  -0.02320576          nan    264.90533   -22842.696   -13242.494
    6600        0.066    292.69896    4.0540937 -0.0011728045 -0.010041927   -0.0229759 -0.023184958          nan    261.47292   -22836.111   -13476.263
    6700        0.067    295.37943    4.1080664 -0.00068260129  0.014369873 -0.022961949 -0.023172956          nan    263.86742   -22835.309   -13739.179
    6800        0.068    300.19498    4.1801901 -0.0064445895 -0.038468546 -0.022963166 -0.023180168          nan    268.16923   -22836.383   -13784.257
    6900        0.069    297.12706    4.2425308  0.003801721  0.019042798 -0.022929564 -0.023152082          nan    265.42861   -22830.375   -14217.918
    7000         0.07    298.10089    4.2980508 -0.017804436  0.013100538 -0.022925185  -0.02315234          nan    266.29855   -22827.927   -14311.156
    7100        0.071    299.45417    4.3753214  0.011787075  0.013632991 -0.022900515 -0.023125643          nan    267.50746   -22825.782   -14669.138
    7200        0.072    299.07354    4.4206337  0.020254871 0.0020936148 -0.022886656 -0.023107325          nan    267.16744   -22822.046    -14809.94
    7300        0.073    299.62365    4.4597567 -0.00038225822 -0.0095718657 -0.022882757 -0.023108911          nan    267.65886   -22819.109   -14832.675
    7400        0.074    300.81217    4.5320423   0.01142896  0.034551984 -0.022852421 -0.023084616          nan    268.72058   -22816.695   -15260.077
    7500        0.075    298.46868    4.5591976 -0.0094003227 -0.0056809404 -0.022855353 -0.023094409          nan     266.6271    -22811.09   -15147.054
    7600        0.076    298.48734    4.6074694 -0.00024234534  0.017147391 -0.022836793 -0.023079963          nan    266.64377   -22807.563   -15414.581
    7700        0.077    299.12346    4.6988955  0.018537278  0.014492993  -0.02280504 -0.023045049          nan    267.21203   -22804.545   -15773.086
    7800        0.078     299.8037    4.7463938 -0.014919528 -0.029275465 -0.022813619 -0.023065518          nan     267.8197   -22801.527   -15673.996
    7900        0.079    296.48786    4.7941117 0.0043243087 0.0070348883 -0.022780039 -0.023030029          nan    264.85761   -22794.911   -16018.236
    8000         0.08    298.46942    4.8656902 0.0071492174 0.0015608354 -0.022762674 -0.023016008          nan    266.62776   -22792.977   -16248.001
    8100        0.081    296.98242     4.891623 -0.024308485 -0.019856148 -0.022766179 -0.023027123          nan     265.2994   -22787.905   -16158.195
    8200        0.082     295.8269    4.9499018  0.016579591  0.023087169  -0.02273207 -0.022987505          nan    264.26715   -22783.103   -16631.895
    8300        0.083    301.58439    5.0203964  0.021584554 -0.00043560022 -0.022725585 -0.022987695          nan    269.41042   -22784.428   -16805.151
    8400        0.084    297.61507    5.0667107 -0.0055090983 -0.0019464469 -0.022710977 -0.022982291          nan    265.86456   -22777.026   -16864.184
    8500        0.085    295.06938    5.1266706   0.01067538 0.00013829342 -0.022684507 -0.022956407          nan    263.59045   -22770.849   -17124.948
    8600        0.086    294.51058    5.1465789 -0.020256611 -0.009524784  -0.02268457 -0.022960399          nan    263.09126   -22766.431   -17055.992
    8700        0.087    298.41454    5.2332834 0.0057615348 -0.010510579 -0.022661718 -0.022944577          nan    266.57874   -22765.947   -17428.448
    8800        0.088    294.00837    5.2676617 -0.021604533 -0.013288078 -0.022650807 -0.022935353          nan    262.64263   -22758.011   -17442.564
    8900        0.089    299.64632    5.3289604  0.019104353  0.021290826 -0.022623415 -0.022908157          nan    267.67911   -22758.996   -17897.852
    9000         0.09    294.80376    5.3887849 -0.029052392  -0.01214251 -0.022617491  -0.02291223          nan    263.35317   -22750.587     -17825.3
    9100        0.091    298.51827     5.448192 -0.00096741444  0.019031409 -0.022597645 -0.022889859          nan     266.6714   -22749.781   -18220.853
    9200        0.092    300.17968     5.520148  0.021717069 0.0028420272 -0.022578664   -0.0228694          nan    268.15557   -22747.099   -18482.357
    9300        0.093    298.06095     5.571749  0.017060799 -0.016593583 -0.022562782 -0.022859324          nan    266.26288   -22741.004   -18574.054
    9400        0.094    298.83715    5.6188026 0.0066679495  0.027975577 -0.022543707 -0.022844245          nan    266.95627   -22737.463    -18844.82
    9500        0.095    297.66731    5.6570647 -0.010257932 -0.0033768618 -0.022532036 -0.022846764          nan    265.91123   -22732.137   -18811.433
    9600        0.096    297.50067    5.7349005  0.018297844  0.035194352 -0.022496959  -0.02280735          nan    265.76237   -22727.674   -19294.642
    9700        0.097    294.05848    5.7649555 -0.034360989 -0.028838001 -0.022501872   -0.0228201          nan     262.6874   -22720.233   -19005.855
    9800        0.098    297.28085    5.8349566  0.022417908 -0.0045471146 -0.022472706 -0.022790541          nan    265.56599   -22718.712   -19509.425
    9900        0.099    298.68946     5.877548  0.046240832  0.007753438 -0.022452421 -0.022767302          nan    266.82433   -22715.548   -19771.808
   10000          0.1     298.5318    5.9277764 -0.022246793 0.0060974705 -0.022441034 -0.022769759          nan    266.68349   -22710.938   -19705.424
   10100        0.101     298.5899    6.0022174 -0.012615573   0.01170883 -0.022420407 -0.022757798          nan    266.73539   -22706.461   -20004.369
   10200        0.102    291.95148    6.0249611 -0.023782347 -0.0032900254  -0.02240112 -0.022739109          nan    260.80518   -22695.991   -19992.963
   10300        0.103    299.16649    6.1090057   0.02213039 -0.030662615 -0.022389619 -0.022729022          nan    267.25047    -22697.84   -20334.911
   10400        0.104    296.43862    6.1725496  0.037877709 0.00053701446  -0.02235116 -0.022694274          nan    264.81362    -22690.78   -20703.214
   10500        0.105    289.81909    6.1666042 -0.047461806 -0.020968166 -0.022359479 -0.022705184          nan    258.90028   -22680.204   -20327.247
   10600        0.106    294.86214    6.2574167 0.0015551203  0.004862178  -0.02232511 -0.022679405          nan    263.40532   -22679.999   -20879.447
   10700        0.107    301.60993     6.351367  0.029743175   0.05776544 -0.022297312 -0.022655841          nan    269.43324   -22681.288   -21462.919
   10800        0.108    298.32844    6.3674917  -0.02448753 -0.0051942687 -0.022296887 -0.022660601          nan    266.50183   -22673.573   -21126.033
   10900        0.109    295.19912    6.4293999  0.020307904  0.011443312 -0.022257575 -0.022615962          nan    263.70635   -22665.959    -21537.17
   11000         0.11    294.68358     6.438273  -0.02960918 -0.056026898 -0.022270789 -0.022637483          nan    263.24581   -22660.646   -21175.457
   11100        0.111    296.40139    6.5368788  0.025058598  0.047929672 -0.022208377  -0.02257277          nan    264.78036   -22657.307    -22032.89
   11200        0.112       296.52    6.5809207 -0.0075178127 -0.026474607 -0.022220573 -0.022603963          nan    264.88632   -22652.486   -21823.094
   11300        0.113    297.24801     6.661644 -0.010962074  0.019419913 -0.022188535 -0.022574183          nan    265.53666   -22648.154   -22233.673
   11400        0.114    296.39939    6.6945313 -0.002300567  0.027601894 -0.022162997 -0.022548129          nan    264.77857   -22642.402   -22399.442
   11500        0.115    296.64902    6.7132696 -0.0032141555 -0.028592312 -0.022163007 -0.022547675          nan    265.00157   -22637.597   -22271.544
   11600        0.116     293.8003    6.7596425  0.045445559   -0.0128567 -0.022115035 -0.022491937          nan    262.45676   -22629.986   -22640.771
   11700        0.117    299.34894    6.8221574 -0.0014667885 0.0015553246 -0.022120457 -0.022520679          nan    267.41346   -22629.845    -22740.82
   11800        0.118    290.66048     6.852604 -0.016125244 -0.00031489953 -0.022084797 -0.022483603          nan    259.65191   -22616.965   -22787.213
   11900        0.119    290.99223    6.9153911 -0.010773534 0.0021420123 -0.022056586 -0.022461207          nan    259.94827   -22612.062   -23022.532
   12000         0.12    296.05397     6.972809 -0.0026698877 -0.00077507812 -0.022055969 -0.022464871          nan       264.47   -22611.338   -23231.214
   12100        0.121    299.06258    7.0502307  0.019043281  0.056879627 -0.022023168 -0.022436992          nan    267.15765   -22608.776   -23753.845
   12200        0.122    297.18855    7.0727403 -0.020358285 -0.011587484 -0.022017507 -0.022435816          nan    265.48354   -22601.812   -23469.315
   12300        0.123    294.74013     7.097788  0.039592737  0.010133434 -0.021974337 -0.022384079          nan    263.29633   -22594.317   -23825.047
   12400        0.124    297.62285    7.1587963  0.022789128 -0.029174791 -0.021971988 -0.022390129          nan    265.87151   -22591.545   -23841.369
   12500        0.125     294.6897    7.1630012  0.015632608  0.016713473 -0.021935779 -0.022358092          nan    263.25128   -22583.564   -23984.491
   12600        0.126    293.08651    7.2436926 -0.018512039   0.02144563 -0.021919219 -0.022361278          nan    261.81912   -22576.707   -24155.421
   12700        0.127    294.22414    7.2800533 -0.031497123 -0.0032835147  -0.02191096 -0.022353882          nan    262.83538   -22572.258   -24150.909
   12800        0.128    295.91408    7.3409003  0.024336586  0.038392235 -0.021873454 -0.022311674          nan    264.34504    -22568.28   -24678.764
   12900        0.129     297.2179    7.3951182 -0.0035885565 -0.0042690811   -0.0218664 -0.022311537          nan    265.50976   -22563.929   -24624.202
   13000         0.13    292.53119    7.4041196 -0.013392545  0.012035161  -0.02182868 -0.022279528          nan    261.32304   -22554.201   -24675.874
   13100        0.131    291.63041    7.4406147 -0.0020396625 -0.017730793 -0.021812893 -0.022265207          nan    260.51837   -22547.825   -24736.147
   13200        0.132    295.94746    7.5001719  0.011707205  0.008922722 -0.021788811 -0.022243966          nan    264.37486    -22546.06   -25069.339
   13300        0.133    293.15536    7.5687562  0.065035697 0.0042628251 -0.021740709 -0.022197442          nan    261.88063   -22537.907   -25460.182
   13400        0.134    290.28317    7.5439035 -0.024716601 -0.067046631 -0.021764564 -0.022231495          nan    259.31485   -22529.673   -24840.468
   13500        0.135    291.32867    7.6356138  0.023276918 0.0059053022 -0.021709563 -0.022177835          nan    260.24881   -22524.926    -25549.32
   13600        0.136    294.88249    7.6476834 -0.014796458  0.011513021 -0.021708954 -0.022192652          nan     263.4235   -22522.343   -25481.333
   13700        0.137    293.89605    7.6570269  -0.05005951  0.022747865 -0.021679137 -0.022167561          nan     262.5423   -22515.714   -25432.384
   13800        0.138    288.75226    7.6826753  0.026910678  0.028673142 -0.021622537 -0.022094767          nan    257.94726    -22505.39   -25794.197
   13900        0.139    293.30152    7.6781311 -0.010780338 -0.047368452 -0.021640932 -0.022118836          nan     262.0112   -22503.637   -25399.941
   14000         0.14     291.4108    7.7690803    0.0218621  0.056092387 -0.021583559 -0.022062924          nan    260.32218   -22496.121   -26156.783
   14100        0.141    293.23286    7.7798242 -0.026811373 -0.055683363 -0.021607328 -0.022091711          nan    261.94986    -22491.87   -25657.765
   14200        0.142     290.6879    7.8638476  0.050267189  0.023499378 -0.021534482 -0.022018625          nan     259.6764   -22483.724   -26458.714
   14300        0.143    290.49929    7.8643036 -0.017125579 -0.010667569 -0.021535733  -0.02203048          nan    259.50791   -22477.629   -26121.702
   14400        0.144    292.96853    7.9276076 -0.017755623 0.0061107435 -0.021510411 -0.022011082          nan    261.71373   -22473.879   -26386.542
   14500        0.145    290.66347    7.9371476  0.026290807  0.036956844  -0.02146483 -0.021964555          nan    259.65457    -22465.84   -26667.984
   14600        0.146     289.6108    7.9534965 -0.048063016 -0.00065363401  -0.02146516 -0.021971948          nan    258.71421   -22458.917   -26349.266
   14700        0.147    292.35925            8  0.036231541  0.049656302 -0.021406699 -0.021910626          nan    261.16945   -22455.349   -26952.959
   14800        0.148    286.50514    7.9379335 -0.055245835 -0.022473319 -0.021421859 -0.021930157          nan    255.93987   -22444.108   -26200.715
   14900        0.149    289.76187    7.9823206  0.028590785 0.0018129954 -0.021372339  -0.02187125          nan    258.84916   -22440.975   -26709.081
   15000         0.15    286.64011    7.8998013 -0.0014300613 -0.040457421 -0.021359278 -0.021855022          nan    256.06044    -22432.16   -26193.046
   15100        0.151    290.73093    7.8277531  0.016412554   0.03045508 -0.021327848 -0.021825048          nan    259.71484   -22429.848   -26248.736
   15200        0.152    298.05194    7.5657749 -0.010824981 -0.038100858 -0.021343601 -0.021834728          nan    266.25483   -22430.556   -25056.164
   15300        0.153    300.98747    7.1601028  0.047057515  0.028303791 -0.021287539 -0.021752986          nan    268.87718   -22427.628   -24118.214
   15400        0.154    314.67146    6.4979756 -0.012496204 -0.056318759 -0.021332377 -0.021778187          nan    281.10132   -22434.844   -21430.536
   15500        0.155    334.59841    5.6925948  0.010586238 0.00070186307 -0.021342379 -0.021757945          nan     298.9024   -22448.491   -19012.943
   15600        0.156     355.3336    4.7600565  0.044606313 -0.0016305111 -0.021378932 -0.021756396          nan     317.4255   -22464.197   -16010.108
   15700        0.157    368.61477    3.8993044  0.013338811 -0.016097132 -0.021460073 -0.021804679          nan    329.28979   -22474.771   -12988.487
   15800        0.158    375.30828    3.1087533  0.023732088  0.074296379 -0.021554145 -0.021842207          nan    335.26922    -22480.67   -10689.273
   15900        0.159    376.48192    2.5219164  -0.13185484 -0.010023048 -0.021707114 -0.021963633          nan    336.31765   -22482.355   -7933.4618
   16000         0.16    375.42356    2.2150486   0.11495709  0.028577692 -0.021720961 -0.021923874          nan     335.3722   -22482.226   -7861.9445
   16100        0.161    382.06102    1.8941556 -0.029935343 -0.081797895 -0.021867147  -0.02204347          nan    341.30155   -22489.203    -5941.408
   16200        0.162    384.47271    1.7367083  0.037526137  0.045268797 -0.021893349 -0.022047697          nan    343.45595   -22492.749   -6065.0107
   16300        0.163    388.14448    1.6993474 -0.079658137 -0.0038421661 -0.021957636 -0.022129273          nan    346.73601    -22497.67    -5386.157
   16400        0.164    395.09251    1.6855153  0.073030563  0.068483477 -0.021937342 -0.022099665          nan    352.94281   -22505.711   -6090.0979
   16500        0.165    392.07354    1.5645568 -0.057103367  0.025753812 -0.022001027 -0.022163282          nan     350.2459   -22505.017    -5110.691
   16600        0.166    392.60842    1.6927813 -0.022761615   0.02122733 -0.021985386 -0.022147871          nan    350.72373   -22507.523   -5637.4901
   16700        0.167      395.153    1.7707006  0.048984847  0.022584508 -0.021992987 -0.022147292          nan    352.99684   -22511.796   -6140.8999
   16800        0.168    389.67323    1.6989832   -0.0849006 -0.056388829  -0.02203602 -0.022205536          nan    348.10167   -22508.929   -5192.3127
   16900        0.169    391.89852    1.8392689  0.021581336  0.037471997 -0.021977182 -0.022151208          nan    350.08956    -22513.07   -6327.7406
   17000         0.17    400.59785    1.7555823  0.022742241  -0.02380874 -0.022015584 -0.022188668          nan    357.86082   -22522.965   -5848.3859
   17100        0.171    398.76299    1.7279209 -0.021446827 0.0032208425 -0.022033033  -0.02219853          nan     356.2217   -22523.504    -5698.983
   17200        0.172    394.43559    1.6565309 -0.017436251  0.024942964 -0.022045005 -0.022205296          nan    352.35596   -22521.901   -5546.7922
   17300        0.173    398.26906    1.5680766 -0.029838546  0.029934548 -0.022092344 -0.022248685          nan    355.78046   -22527.627    -5227.242
   17400        0.174    401.52169    1.5337286  0.043584562 -0.029430199 -0.022101796 -0.022239978          nan    358.68609   -22532.963     -5159.61
   17500        0.175    397.84795     1.533348  0.020708208  0.022944204 -0.022106795  -0.02223783          nan    355.40428   -22532.054   -5256.6681
   17600        0.176    403.36423    1.4685605  0.024656215 -0.0090536755 -0.022150126 -0.022285308          nan    360.33207   -22539.409   -4947.2101
   17700        0.177    398.86731    1.4943303  0.013047831  0.016907347 -0.022129064 -0.022265423          nan     356.3149   -22537.855   -5080.9515
   17800        0.178    395.81289    1.4569681 -0.0082520029 -0.024561112 -0.022164622 -0.022301029          nan    353.58633    -22537.63   -4747.1834
   17900        0.179    395.62514    1.4386352 -0.027731464 -0.014570421 -0.022188977 -0.022321746          nan    353.41861   -22539.912   -4654.4442
   18000         0.18    399.22127    1.4866673  0.027718992   0.01757213 -0.022164039 -0.022296071          nan    356.63109   -22545.551    -5106.528
   18100        0.181    394.33455    1.3830889 -0.026886787 -0.0069466518 -0.022212955 -0.022331766          nan     352.2657   -22543.614   -4497.5184
   18200        0.182    392.51968    1.4399454 0.0081682388 -0.068047851 -0.022196824 -0.022326901          nan    350.64445   -22544.435   -4600.2193
   18300        0.183    391.01128    1.4553953  -0.02796104  0.054949077 -0.022193305 -0.022325454          nan    349.29697   -22545.481   -4941.2778
   18400        0.184    388.95954      1.39404 -0.019367082 0.0070084999  -0.02222128 -0.022341602          nan    347.46411    -22545.99   -4605.6047
   18500        0.185    389.44709    1.3953486   0.03650524 -0.024219432 -0.022209001 -0.022335288          nan    347.89965   -22548.761   -4692.1146
   18600        0.186    392.42886    1.3986356 -0.0040093531  0.013567801 -0.022218736 -0.022352272          nan    350.56332   -22553.775     -4693.98
   18700        0.187    387.24341    1.4240971 -0.017168752 -0.023385227 -0.022222819 -0.022352927          nan    345.93107   -22551.494   -4611.8105
   18800        0.188     393.3827    1.4978211  0.034726502  0.045367404 -0.022202474 -0.022330311          nan     351.4154   -22559.287   -5259.7165
   18900        0.189     393.3354    1.3555611  0.013657044 -0.062259619 -0.022280248 -0.022401848          nan    351.37314   -22561.579   -4356.5283
   19000         0.19    395.24929    1.3664655  0.024363821  0.021590514 -0.022271966 -0.022391105          nan    353.08285    -22565.66    -4708.066
   19100        0.191    393.58212    1.2799425 -0.0080193603 -0.053990483 -0.022305548 -0.022417436          nan    351.59354   -22566.572   -4059.7756
   19200        0.192    392.30508    1.2554616 -0.024221646  0.035639307 -0.022290289 -0.022405216          nan    350.45274   -22567.839   -4222.9308
   19300        0.193    393.68692    1.3312268  0.028216406  0.048747502 -0.022304392 -0.022409711          nan    351.68716   -22571.566   -4693.9689
   19400        0.194    396.03269    1.3585527 -0.011363802 -0.016982834 -0.022322179 -0.022442617          nan    353.78268   -22575.966   -4434.0202
   19500        0.195    394.13428    1.4226049   0.12127652 0.0040247441  -0.02227855 -0.022397217          nan     352.0868   -22576.602   -5159.6873
   19600        0.196    392.97631    1.2916053  -0.02774753 -0.078605297 -0.022358467 -0.022484837          nan    351.05237   -22578.015   -3950.8416
   19700        0.197    387.05513    1.3901872 -0.060708061   0.11649728  -0.02229748 -0.022439026          nan    345.76287    -22574.98   -4819.9213
   19800        0.198     387.5193    1.3246187  0.005480054 0.0070825892 -0.022323209 -0.022443961          nan    346.17753   -22577.721   -4457.2712
   19900        0.199    389.45843    1.3108945 -0.048736236 0.0067739814  -0.02235159 -0.022478189          nan    347.90978   -22581.718   -4229.7741
   20000          0.2    386.11333    1.3084429  0.064872239  0.032070004 -0.022328971 -0.022428045          nan    344.92155   -22581.036   -4684.6172
Loop time of 1770.15 on 4 procs for 20000 steps with 6912 atoms

Pair  time (%) = 1670.15 (94.3509)
Neigh time (%) = 0.86115 (0.0486485)
Comm  time (%) = 67.8494 (3.83299)
Outpt time (%) = 0.0815009 (0.00460419)
Other time (%) = 31.206 (1.76291)

######################################
# SIMULATION DONE
print "All done"
All done
