LAMMPS (28 Jun 2014)
# Input file for uniaxial tensile loading of single crystal aluminum
# Mark Tschopp, November 2010

# ------------------------ INITIALIZATION ----------------------------
units 		metal
dimension	3
boundary	p	p	p
atom_style	atomic
variable latparam equal 4.05

# ----------------------- ATOM DEFINITION ----------------------------
lattice		fcc 4.05
Lattice spacing in x,y,z = 4.05 4.05 4.05
region		whole block 0 10 0 10 0 10
create_box	1 whole
Created orthogonal box = (0 0 0) to (40.5 40.5 40.5)
lattice 	fcc 4.05 orient x 1 0 0 orient y 0 1 0 orient z 0 0 1
Lattice spacing in x,y,z = 4.05 4.05 4.05
create_atoms	1 region whole
Created 4000 atoms

# ------------------------ FORCE FIELDS ------------------------------
pair_style	eam/alloy
pair_coeff	* * Al99.NegFRho.PosRhoR.ZeroPhiR.eam.alloy Al

# ------------------------- SETTINGS ---------------------------------
compute csym all centro/atom fcc
compute peratom all pe/atom

######################################
# EQUILIBRATION
reset_timestep	0
timestep 0.001
velocity all create 300 12345 mom yes rot no
fix 1 all npt temp 300 300 1 iso 0 0 1 drag 1

# Set thermo output
thermo 1000
thermo_style custom step lx ly lz press pxx pyy pzz pe temp

# Run for at least 10 picosecond (assuming 1 fs timestep)
run 20000
Step Lx Ly Lz Press Pxx Pyy Pzz PotEng Temp
0         40.5         40.5         40.5    2514.9557    2465.8226    2553.4866     2525.558    -13444.32          300
Averages over the last 11 of 21 rows, steps 10000 to 20000:
Lx Ly Lz Press Pxx Pyy Pzz PotEng Temp
40.6403 40.6403 40.6403 40.9517 -12.2705 41.688 93.4375 -13297.8 283.222
Loop time of 206.896 on 4 procs for 20000 steps with 4000 atoms

Pair  time (%) = 184.459 (89.1556)
Neigh time (%) = 0 (0)
Comm  time (%) = 16.4667 (7.95893)
Outpt time (%) = 0.00239033 (0.00115533)
Other time (%) = 5.96753 (2.88432)

unfix 1

# Store final cell length for strain calculations
variable tmp equal "lx"
variable L0 equal 40.6474777382519
Initial Length, L0: 40.6474777382519

######################################
# DEFORMATION
reset_timestep	0

fix		1 all npt temp 300 300 1 y 0 0 1 z 0 0 1 drag 1
variable srate equal 1.0e10
variable srate1 equal "v_srate / 1.0e12"
fix		2 all deform 1 x erate 0.01 units box remap x

# Output strain and stress info to file
# for units metal, pressure is in [bars] = 100 [kPa] = 1/10000 [GPa]
# p2, p3, p4 are in GPa
variable strain equal "(lx - v_L0)/v_L0"
variable p1 equal "v_strain"
variable p2 equal "-pxx/10000"
variable p3 equal "-pyy/10000"
variable p4 equal "-pzz/10000"

# Use cfg for AtomEye
#dump 		1 all cfg 250 dump.tensile_*.cfg id type xs ys zs c_csym c_peratom fx fy fz
#dump_modify 1 element Al

# Display thermo
thermo 	1000
thermo_style	custom step v_strain temp v_p2 v_p3 v_p4 ke pe press

run		20000
Step strain Temp p2 p3 p4 KinEng PotEng Press
0 -3.4961221e-16    298.91071 -0.003001191 -0.018256114 -0.020360055    154.51033   -13289.418    138.72453
Averages over the last 11 of 21 rows, steps 10000 to 20000:
strain Temp p2 p3 p4 KinEng PotEng Press
0.15 331.462 4.75893 -0.00687817 0.0333629 171.336 -13049 -15951.4
Loop time of 252.646 on 4 procs for 20000 steps with 4000 atoms

Pair  time (%) = 228.547 (90.4612)
Neigh time (%) = 0.476161 (0.18847)
Comm  time (%) = 17.0984 (6.76773)
Outpt time (%) = 0.00290251 (0.00114884)
Other time (%) = 6.52182 (2.58141)

######################################
# SIMULATION DONE
print "All done"
All done
