# ----------------------- ATOM DEFINITION ----------------------------
lattice		fcc 4.05
Lattice spacing in x,y,z = 4.05 4.05 4.05
region		whole block 0 16 0 16 0 16
create_box	1 whole
Created orthogonal box = (0 0 0) to (64.8 64.8 64.8)
lattice 	fcc 4.05 orient x 1 0 0 orient y 0 1 0 orient z 0 0 1
Lattice spacing in x,y,z = 4.05 4.05 4.05
create_atoms	1 region whole
Created 16384 atoms

# ------------------------ FORCE FIELDS ------------------------------

#****************USE THIS TO TEST******************
pair_style	eam/rad
pair_coeff 		* * Al99.PC0.05.eam.alloy.rad.txt Al # pc = 0.5   error generating

# to test with error = 0 use this potential
# pair_coeff	* * Al99.eam.alloy.005pcrad_NULL_noerror Al

#****************USE THIS TO RUN REFRENCE***********
# pair_style	eam/alloy
# pair_coeff	* * Al99.eam.alloy Al

# ------------------------- SETTINGS ---------------------------------
compute csym all centro/atom fcc
compute peratom all pe/atom

######################################
# EQUILIBRATION
reset_timestep	0
timestep	0.001 # default
# timestep	0.0001 # tiny time step
velocity all create 300 12345 mom yes rot no
fix 1 all npt temp 300 300 1 iso 0 0 1 drag 1

# Set thermo output
thermo 50
# thermo 1 # debug mode

# thermo_style custom step lx ly lz press pxx pyy pzz pe temp
# IMPLEMENTATION HERE

# VERSION add rad variables .v1 .v2
# thermo_style custom step lx ly lz press pxx pyy pzz pxxrad pyyrad pzzrad pe temp

# VERSION ublb separation .v3
thermo_style custom step lx ly lz press pxx pxxrad pyy pyyrad pzz pzzrad pe temp

# Run for at least 10 picosecond (assuming 1 fs timestep)
run 	20000 # default
Step Lx Ly Lz Press Pxx Pxxrad Pyy Pyyrad Pzz Pzzrad PotEng Temp
0         64.8         64.8         64.8    2496.5946    2464.3333    242.99145    2508.7809    242.99145    2516.6696    242.99145    -55050.24          300
Averages over the last 201 of 401 rows, steps 10000 to 20000:
Lx Ly Lz Press Pxx Pxxrad Pyy Pyyrad Pzz Pzzrad PotEng Temp
65.0093 65.0093 65.0093 -0.440813 7.94012 239.828 15.0659 239.834 -24.3284 239.835 -54485.9 267.66
Loop time of 4541.57 on 4 procs for 20000 steps with 16384 atoms

Pair  time (%) = 4183.26 (92.1105)
Neigh time (%) = 0 (0)
Comm  time (%) = 246.695 (5.43194)
Outpt time (%) = 0.203461 (0.00447997)
Other time (%) = 111.408 (2.45307)

# run 	200000

# Use this if debug
# run 	1000
# run 200
unfix 1

# Store final cell length for strain calculations
variable tmp equal "lx"
variable L0 equal 65.0292040293441
Initial Length, L0: 65.0292040293441

######################################
# DEFORMATION
reset_timestep	0
set atom * xrad 0 yrad 0 zrad 0 vxrad 0 vyrad 0 vzrad 0
  16384 settings made for xrad
  16384 settings made for yrad
  16384 settings made for zrad
  16384 settings made for vxrad
  16384 settings made for vyrad
  16384 settings made for vzrad
fix		1 all npt temp 300 300 1 y 0 0 1 z 0 0 1 drag 1

variable srate equal 1.0e10
# variable srate equal 1.0e9 # tiny time step

variable srate1 equal "v_srate / 1.0e12"
fix		2 all deform 1 x erate 0.01 units box remap x

# Output strain and stress info to file
# for units metal, pressure is in [bars] = 100 [kPa] = 1/10000 [GPa]
# p2, p3, p4 are in GPa
variable strain equal "(lx - v_L0)/v_L0"
variable p1 equal "v_strain"
variable p2 equal "-pxx/10000"
variable p3 equal "-pyy/10000"
variable p4 equal "-pzz/10000"

# IMPLEMENTATION HERE
variable p5 equal "-pxxrad/10000"

# VERSION add rad variables
variable p6 equal "-pyyrad/10000"
variable p7 equal "-pzzrad/10000"

# VERSION ublb coupled/decoupled scheme
# variable p6 equal "-pxxub/10000"
# variable p7 equal "-pxxlb/10000"

# Use cfg for AtomEye
# dump 		1 all cfg 250 dump.tensile_*.cfg mass type xs ys zs c_csym c_peratom fx fy fz
# dump_modify 1 element Al

# print output to a text file every n timesteps
# dump		2 all custom 50 dump.xyz_rvf_rad.tensile_*.txt mass type id x y z vx vy vz fx fy fz xrad yrad zrad vxrad vyrad vzrad fxrad fyrad fzrad # use for rad developement
# dump		2 all custom 50 dump.xyz_rvf_rad.tensile_*.txt mass type id x y z vx vy vz fx fy fz xrad yrad zrad vxrad vyrad vzrad fxrad fyrad fzrad xub yub zub vxub vyub vzub fxub fyub fzub xlb ylb zlb vxlb vylb vzlb fxlb fylb fzlb # use for ublb developement

# Display thermo
thermo 	50
# thermo 1
# thermo_style	custom step v_strain temp v_p2 v_p3 v_p4 ke pe press

# IMPLEMENTATION HERE
thermo_style	custom step v_strain temp v_p2 v_p3 v_p4 v_p5 v_p6 v_p7 ke pe press
run	20000
Step strain Temp p2 p3 p4 p5 p6 p7 KinEng PotEng Press
0            0    291.66205 -0.0089028838 -0.0036466642 -0.0050014821 -0.023946032 -0.023941306 -0.023943248    617.64367   -54439.173    58.503433
     100        0.001    290.30026  0.072713263  0.012380118  0.017318566  -0.02391075 -0.023922329          nan    614.75986   -54435.668   -341.37316
     200        0.002    290.74457   0.10834932 0.0053879461 -0.015634771 -0.023903561 -0.023917867          nan    615.70075   -54435.542   -327.00832
     300        0.003    289.34835    0.1891214  0.012486457  0.007984165 -0.023873074 -0.023893789          nan    612.74402   -54431.151   -698.64007
     400        0.004    289.65682   0.24979058 -0.0098124585 -0.0089095852 -0.023861765 -0.023892617          nan    613.39725   -54430.043   -770.22845
     500        0.005    292.34391    0.3318371 0.0040886813   0.03106471 -0.023828992  -0.02386558          nan    619.08762   -54433.728   -1223.3017
     600        0.006    289.88005   0.36769008 -0.013708684 -0.00012953215 -0.023827871 -0.023870166          nan    613.86998    -54426.32   -1179.5062
     700        0.007    289.86122   0.45153952 0.0095339883 -0.0053971864 -0.023799512  -0.02384875          nan     613.8301   -54423.948   -1518.9211
     800        0.008    290.22525   0.51162883 0.0039405095 -0.010260843 -0.023778791 -0.023833565          nan    614.60099   -54422.289   -1684.3617
     900        0.009    291.66592     0.572513 -0.0070427116 -0.0022931067 -0.023772744 -0.023830958          nan    617.65185   -54422.831   -1877.2573
    1000         0.01    293.13572   0.65416354 -0.0016026163   0.02320911 -0.023743848  -0.02380712          nan    620.76442   -54423.376   -2252.5668
    1100        0.011    294.31916   0.69423781 0.0031726848 -0.021004749 -0.023740046 -0.023810465          nan    623.27055   -54423.275   -2254.6858
    1200        0.012    291.78795   0.76108396  0.015905405 0.0085335404 -0.023706613 -0.023780749          nan    617.91028   -54415.233   -2618.4097
    1300        0.013    292.48153   0.82594928 -0.0060929594 -0.0048545596 -0.023701599 -0.023778618          nan    619.37906   -54413.932   -2716.6725
    1400        0.014    290.53936   0.89167291 -0.014476217 -0.0069443721 -0.023687515 -0.023771587          nan    615.26618   -54406.971   -2900.8411
    1500        0.015    295.11574   0.96989265 0.00048279987  0.023647495 -0.023662546 -0.023744791          nan    624.95743   -54413.727   -3313.4098
    1600        0.016    294.51056    1.0075178 -0.0034970989 -0.014774608 -0.023662882 -0.023750432          nan    623.67587   -54409.435   -3297.4871
    1700        0.017    293.66816    1.1042522  0.021356514  0.012708469 -0.023625869 -0.023716891          nan    621.89194   -54404.537   -3794.3908
    1800        0.018    292.39151    1.1296307 -0.027610703  -0.01117653  -0.02363194 -0.023728847          nan    619.18843   -54398.622   -3636.1448
    1900        0.019    295.40761     1.219937 -0.00089515971 0.0049399382 -0.023605968 -0.023702841          nan    625.57553   -54401.713   -4079.9394
    2000         0.02    292.29967    1.2707487 -0.0058944393 0.0089658481  -0.02359475 -0.023693777          nan    618.99393   -54391.752    -4246.067
    2100        0.021    293.44196    1.3345252 -0.0049605906 -0.011609398  -0.02358437 -0.023688181          nan    621.41292   -54390.667    -4393.184
    2200        0.022    292.96239    1.4085809 0.0074934937 -0.00075408847 -0.023560273 -0.023666095          nan    620.39736   -54386.063   -4717.7343
    2300        0.023    293.07038    1.4550911 -0.0027791209 -0.024742373 -0.023559617 -0.023669752          nan    620.62605   -54382.596   -4758.5653
    2400        0.024    295.11232    1.5295571 0.0059744581 0.0089916986 -0.023535342 -0.023643256          nan     624.9502   -54383.137   -5148.4107
    2500        0.025    295.67897     1.587317 -0.0097979755 -0.0080624517 -0.023528479 -0.023643453          nan    626.15018    -54380.47   -5231.5219
    2600        0.026    294.01209     1.655255 0.0016228928 0.0024881542 -0.023511138 -0.023627466          nan    622.62029   -54372.967     -5531.22
    2700        0.027    294.07649    1.7164139 0.0024374892 -0.0079460607 -0.023498429 -0.023615964          nan    622.75665   -54369.041   -5703.0179
    2800        0.028    295.04403    1.7781972 -0.0045430886 0.0073771363 -0.023485729 -0.023606658          nan    624.80559   -54366.935   -5936.7707
    2900        0.029    296.43925    1.8436214 -0.0036568914 -0.0013800285 -0.023472466 -0.023593002          nan    627.76019   -54365.653   -6128.6149
    3000         0.03    295.08014    1.9055053 0.0033590912 0.0083039424 -0.023456322 -0.023583025          nan    624.88204   -54358.445   -6390.5611
    3100        0.031    294.18762    1.9507321 -0.0034821932  0.024349619 -0.023447343 -0.023573472          nan    622.99198   -54352.119   -6571.9986
    3200        0.032    292.89954     2.002303 -0.0081446586 -0.014250224 -0.023445095 -0.023573214          nan    620.26427   -54344.891   -6599.6937
    3300        0.033    294.51397    2.0987317  0.017123967 0.0090204943 -0.023412341 -0.023539983          nan     623.6831   -54343.695   -7082.9205
    3400        0.034    294.08023     2.129698 -0.0086565294 -0.0091912512 -0.023418151  -0.02354977          nan    622.76456   -54338.076   -7039.5006
    3500        0.035     296.3037    2.1966779 -0.0044694068  0.004196366  -0.02340068 -0.023531299          nan    627.47316   -54338.001   -7321.3496
    3600        0.036    294.19156     2.276938 0.0022041966 0.0045045253 -0.023379983 -0.023513363          nan    623.00033    -54328.66   -7612.1558
    3700        0.037    295.10785    2.3141643 -0.0078396916  -0.01664387 -0.023378695 -0.023516711          nan    624.94073    -54325.63   -7632.2691
    3800        0.038    293.92233    2.3873881 0.0021537842 0.0047943261 -0.023356047  -0.02349715          nan     622.4302   -54318.064   -7981.1208
    3900        0.039    295.81544       2.4495 -0.0052220334 0.0047085777 -0.023344878 -0.023484508          nan    626.43917   -54316.916   -8163.2883
    4000         0.04    295.97516    2.5172906 -0.011824931 0.0017145184 -0.023330335 -0.023479492          nan    626.77741   -54312.013   -8357.2671
    4100        0.041    296.12474    2.5787315 -0.00045761265 0.0090852511 -0.023316189 -0.023461586          nan    627.09416   -54306.991   -8624.5304
    4200        0.042    295.04981    2.6186179 -0.0085341929 -0.019147978 -0.023314768 -0.023462179          nan    624.81783   -54299.274   -8636.4526
    4300        0.043    295.68321    2.6983258  0.021881199 0.0089042749 -0.023287396 -0.023435171          nan    626.15915   -54295.104   -9097.0377
    4400        0.044    298.01222     2.741027 -0.017317024 -0.012491445 -0.023292954 -0.023447331          nan    631.09123   -54294.433   -9037.3953
    4500        0.045    295.95159     2.830101  0.024419645  0.019652214 -0.023256038 -0.023411141          nan    626.72749   -54284.374   -9580.5761
    4600        0.046    296.31941    2.8598888 -0.013596443 -0.010875897 -0.023265311 -0.023426029          nan    627.50641   -54279.365   -9451.3882
    4700        0.047    297.50292    2.9295659  0.011578294  0.016217876 -0.023241091 -0.023401006          nan     630.0127   -54276.001   -9857.8736
    4800        0.048    297.30371    2.9984079  0.014555165 0.0076289002 -0.023226888 -0.023383635          nan    629.59083   -54269.602    -10068.64
    4900        0.049    296.62045    3.0564794 -0.011523041 -0.0049021814 -0.023220195 -0.023380593          nan    628.14392    -54262.08   -10133.514
    5000         0.05    296.39128    3.1263017  0.014540087  0.013365302 -0.023196547 -0.023360439          nan    627.65861    -54255.43   -10514.024
    5100        0.051    298.79147    3.1668753 0.0065384118 -0.013436903  -0.02319873 -0.023361551          nan    632.74143   -54254.265   -10533.256
    5200        0.052    298.74212    3.2435476  0.016055429  0.014679623 -0.023177045 -0.023347259          nan    632.63691   -54247.839   -10914.275
    5300        0.053    299.00128    3.2884853 0.00054989527  0.032276836 -0.023164032 -0.023335239          nan    633.18573   -54241.949    -11071.04
    5400        0.054    294.93809    3.3342262 -0.014283955  0.010306536 -0.023152554 -0.023331035          nan    624.58124   -54226.847   -11100.829
    5500        0.055    296.67811    3.4256261 0.0090359352 -0.0033263825 -0.023135476 -0.023315421          nan    628.26601   -54223.921   -11437.785
    5600        0.056     296.1017    3.4563257 0.0080788576 -0.012530047 -0.023126811 -0.023299777          nan    627.04537   -54215.995   -11506.248
    5700        0.057    295.70025    3.5158221  0.007510564 0.0017839695 -0.023111904 -0.023290251          nan    626.19525    -54208.38   -11750.389
    5800        0.058    296.76929     3.576258 -0.010483911 -0.0052290724 -0.023102404 -0.023286881          nan    628.45912   -54203.776   -11868.484
    5900        0.059    295.66064    3.6321947 -0.0071676672  0.014322721 -0.023082048 -0.023268224          nan    626.11136   -54194.469   -12131.166
    6000         0.06    299.37564    3.7112541  0.009277327 -0.021882342 -0.023072525 -0.023261159          nan    633.97849   -54195.275    -12328.83
    6100        0.061    298.50468    3.7613866  0.018863483 0.0062456043 -0.023052457 -0.023243365          nan    632.13409   -54186.297   -12621.652
    6200        0.062    295.93571    3.7942112  -0.01097592 -0.001784547 -0.023047487 -0.023241923          nan    626.69386   -54173.646   -12604.836
    6300        0.063    295.44753    3.8766593 0.0053759471  0.011999065 -0.023025667  -0.02322396          nan    625.66007   -54165.286   -12980.114
    6400        0.064    295.24814    3.9142302 -0.025854231 -0.0062113683 -0.023023727 -0.023229003          nan    625.23783   -54157.478   -12940.549
    6500        0.065    297.71456    3.9962364  0.010276018  0.012280342 -0.022995885 -0.023200359          nan    630.46088   -54155.196   -13395.976
    6600        0.066    295.44455    4.0407596 -0.0021438971 -0.0068731169 -0.022991277 -0.023197261          nan    625.65375   -54142.809   -13439.142
    6700        0.067    297.11183    4.0888963 -0.013213582 0.0035737948 -0.022977491 -0.023185416          nan     629.1845   -54138.685   -13597.522
    6800        0.068    294.34009    4.1515283 0.00045883255 0.0061805906 -0.022959639 -0.023171267          nan    623.31487   -54125.063   -13860.559
    6900        0.069    299.61325    4.2107547 0.0076280709 -0.013068824 -0.022955436 -0.023168098          nan    634.48168   -54128.403   -14017.713
    7000         0.07    296.88293    4.2907326  0.018646945  0.017919722 -0.022917188 -0.023136394          nan    628.69976   -54114.693   -14424.331
    7100        0.071    297.29087    4.3128518 -0.0072355814 -0.0058201619 -0.022926321 -0.023155586          nan    629.56366   -54107.537   -14332.654
    7200        0.072    297.00416    4.3804163 -0.0033299518 0.0091427714 -0.022901256 -0.023134181          nan    628.95649   -54098.822   -14620.764
    7300        0.073    295.23282    4.4388675 0.0067063567 0.0052490935 -0.022883312  -0.02311587          nan    625.20537    -54086.88   -14836.076
    7400        0.074    298.08476    4.4976648  -0.01494196 -0.0015093088 -0.022880438 -0.023115659          nan    631.24484    -54084.61   -14937.378
    7500        0.075    297.91374    4.5799602  0.023535379  0.015596122  -0.02284671  -0.02308423          nan    630.88267   -54075.861   -15396.972
    7600        0.076    295.22718    4.5874447 -0.020954222 -0.030855106 -0.022855127 -0.023091591          nan    625.19343   -54061.722   -15118.785
    7700        0.077    297.93725    4.6887638  0.027405869  0.020259873 -0.022815128 -0.023054363          nan    630.93246   -54058.906   -15788.099
    7800        0.078    296.81925    4.6953541 -0.018002531 -0.020965992 -0.022827142 -0.023072729          nan    628.56492   -54047.925   -15521.285
    7900        0.079    295.36158    4.7815264  0.006807668    0.0158603 -0.022787806  -0.02303703          nan    625.47805   -54036.129   -16013.981
    8000         0.08     298.4629    4.8386751 -0.015747383  0.022129385 -0.022782253 -0.023042031          nan    632.04561   -54033.884    -16150.19
    8100        0.081    297.10859    4.8728969 -0.014046416 0.0034464828 -0.022769412 -0.023027315          nan    629.17763   -54022.135   -16207.657
    8200        0.082    299.75576    4.9625904  0.024080762  0.019490978 -0.022744737 -0.023000071          nan    634.78347   -54018.752   -16687.207
    8300        0.083    297.42528    4.9875313 -0.001907268 -0.015101291 -0.022739464 -0.023000466          nan    629.84829   -54004.739   -16568.409
    8400        0.084    297.82473    5.0602457  0.045067766 -0.0049421617   -0.0227098 -0.022973611          nan    630.69419   -53996.421   -17001.238
    8500        0.085    295.87987    5.1069973 -0.029478747 -0.012412685 -0.022710963 -0.022990042          nan    626.57562   -53983.033   -16883.686
    8600        0.086     298.5107    5.1898138 0.0086230043  0.037189596 -0.022671406 -0.022948125          nan    632.14683   -53979.233   -17452.088
    8700        0.087    295.90147    5.2025678 -0.018676076  -0.01421968 -0.022677469 -0.022955409          nan    626.62135   -53964.297    -17232.24
    8800        0.088    298.13581    5.2735828  0.023794093 0.0080743011 -0.022647849 -0.022921216          nan    631.35295    -53959.51   -17684.837
    8900        0.089    297.34605    5.3519007  0.025613507 -0.009516443 -0.022632837 -0.022914996          nan     629.6805   -53948.219   -17893.326
    9000         0.09    295.70013    5.3694746 -0.011630413 -0.0073867954 -0.022627436 -0.022916305          nan    626.19498    -53935.06   -17834.858
    9100        0.091    295.90843    5.4487576 -0.0044301163  0.036501753 -0.022594335 -0.022893087          nan    626.63609   -53925.677   -18269.431
    9200        0.092    295.70213    5.4852987 -0.040270003 -0.0067980913 -0.022593957 -0.022891583          nan    626.19921   -53915.389   -18127.435
    9300        0.093    296.75797    5.5618332  0.041499899 0.0024054051 -0.022561361 -0.022850738          nan    628.43514   -53907.669   -18685.795
    9400        0.094    297.11381    5.6079004  0.002997622  -0.02527606 -0.022560223 -0.022857832          nan    629.18868   -53898.362    -18618.74
    9500        0.095    294.34125    5.6608142 0.0028836559 -0.0012738282 -0.022529218 -0.022834604          nan    623.31734   -53882.377   -18874.747
    9600        0.096    294.83053    5.7104283 -0.023247364 -0.0056091269 -0.022526537 -0.022840474          nan    624.35346   -53873.179   -18938.573
    9700        0.097    295.14157    5.7721327 -0.0065719478 0.0037197252 -0.022500481 -0.022817435          nan    625.01214   -53863.541   -19230.935
    9800        0.098    296.23359    5.8274128  0.013428568 9.6427055e-05 -0.022477906 -0.022794418          nan    627.32468   -53855.481   -19469.793
    9900        0.099    297.69253    5.8828007   0.01438731 -0.024001789 -0.022468627 -0.022790133          nan    630.41423   -53848.091   -19577.287
   10000          0.1    293.70181    5.9285664 0.0098217001 -0.0053943595 -0.022441782 -0.022766284          nan    621.96321   -53829.081   -19776.646
   10100        0.101    297.32871    5.9718787 -0.011929532  0.018551073 -0.022438874 -0.022774664          nan    629.64377    -53826.11   -19928.334
   10200        0.102    294.70957    6.0314065 -0.022271119  0.016502945 -0.022412439  -0.02275054          nan    624.09731   -53809.847   -20085.461
   10300        0.103    295.25607    6.0900586 -0.00027505274  0.023119613 -0.022391366 -0.022729807          nan    625.25461   -53800.198   -20376.344
   10400        0.104    296.15739    6.1182283 -0.0055298298 -0.023080046 -0.022388223 -0.022727475          nan    627.16331   -53791.216   -20298.728
   10500        0.105    296.46591    6.1897252  0.024890761  0.020651561 -0.022348026 -0.022686267          nan    627.81666   -53780.909   -20784.225
   10600        0.106    294.70129    6.2366857 -0.0049544845 -0.020751226 -0.022345452  -0.02268988          nan    624.07977   -53766.094   -20703.267
   10700        0.107    295.95184     6.302547 0.0039702679  0.015308117 -0.022317345 -0.022670896          nan    626.72803   -53757.585   -21072.751
   10800        0.108    296.06438    6.3408207 -0.018530199  0.006534892  -0.02230582 -0.022667499          nan    626.96634   -53746.571   -21096.085
   10900        0.109    293.17435    6.3869848 0.0018603218 0.0026040913 -0.022275275 -0.022634827          nan    620.84622   -53729.148   -21304.831
   11000         0.11    298.03156    6.4600403 0.0022408883  0.017282971 -0.022263683 -0.022631566          nan    631.13218   -53728.021   -21598.547
   11100        0.111    297.60786    6.4931912 0.0014402268 0.0078872242 -0.022245805 -0.022614053          nan    630.23493   -53715.649   -21675.062
   11200        0.112    295.30704    6.5647981  0.032673841  0.003857523 -0.022217024 -0.022584058          nan    625.36255   -53699.178   -22004.432
   11300        0.113    298.56972     6.607277 -0.013939096 -0.0078952252 -0.022216298 -0.022594573          nan    632.27183   -53694.415   -21951.476
   11400        0.114    294.29485    6.6565077  0.026224169  0.029367882 -0.022166386 -0.022542434          nan    623.21907   -53673.625   -22373.666
   11500        0.115    293.01377    6.7055881 -0.027346355  -0.02000223 -0.022169295  -0.02255903          nan    620.50617   -53659.043   -22194.132
   11600        0.116    292.90485    6.7239543 0.0010716081 -0.0072970526 -0.022141923 -0.022524682          nan    620.27552   -53646.896   -22392.429
   11700        0.117    295.99702    6.7963903  0.010581478 -0.0062817737 -0.022121665  -0.02251283          nan    626.82369   -53641.462   -22668.967
   11800        0.118    295.65766    6.8374182 -0.0098231395  0.010299903 -0.022103051 -0.022499239          nan    626.10506   -53628.679   -22792.983
   11900        0.119    294.80481    6.9009367  0.024451263  0.019218656 -0.022075045 -0.022473954          nan      624.299     -53614.7   -23148.689
   12000         0.12    294.03772    6.9283213 -0.004529614 -0.036005034 -0.022075109  -0.02247845          nan    622.67455   -53600.807   -22959.289
   12100        0.121    295.92479    7.0184255  0.042762583  0.021102177 -0.022028328 -0.022432502          nan    626.67073   -53592.472   -23607.634
   12200        0.122    293.53424    7.0206723 -0.027902647 -0.019654221  -0.02203028 -0.022447212          nan    621.60834   -53575.018   -23243.718
   12300        0.123    293.96768    7.1078555   0.01798432    0.0170461 -0.021988913 -0.022407008          nan    622.52623   -53563.448    -23809.62
   12400        0.124    294.20346    7.1309263 -0.015636227 -0.0025125165 -0.021976208 -0.022400885          nan    623.02554   -53551.373   -23709.258
   12500        0.125    293.20825    7.1630936 -0.011996753  0.025672626 -0.021951799 -0.022379502          nan    620.91801   -53536.624   -23922.565
   12600        0.126    294.92354    7.2474458  0.022873715 0.0035391865 -0.021929732 -0.022358176          nan    624.55042   -53527.538   -24246.196
   12700        0.127    293.55748    7.2629515 0.0015966151 -0.0037850923 -0.021912976 -0.022347006          nan    621.65755   -53511.832   -24202.544
   12800        0.128    291.97971    7.3120246  0.022108149 0.0011096719 -0.021883135 -0.022317271          nan    618.31638   -53495.633   -24450.808
   12900        0.129    292.61236    7.3589548 -0.012854203 -0.016363885 -0.021873321  -0.02232149          nan    619.65612   -53484.003   -24432.456
   13000         0.13    290.78381     7.415021  0.014886876  0.011221629 -0.021833277 -0.022279929          nan    615.78386   -53467.079   -24803.765
   13100        0.131    293.28278    7.4481658 -0.023400144   0.01208596 -0.021826343 -0.022280547          nan    621.07585   -53459.255   -24789.505
   13200        0.132    293.11152     7.515565  0.010702505  0.019076659 -0.021796407 -0.022253726          nan    620.71317   -53445.684   -25151.147
   13300        0.133    291.61298    7.4890029 -0.027727761 -0.015057517 -0.021785913 -0.022241713          nan    617.53976   -53429.267   -24820.725
   13400        0.134     291.4742    7.5803297  0.012275588  0.017438217 -0.021744494 -0.022206717          nan    617.24586   -53415.665   -25366.812
   13500        0.135    289.26605    7.5846537 -0.020390557 -0.024038941 -0.021738714 -0.022203141          nan    612.56974   -53397.601   -25134.081
   13600        0.136    292.61288    7.6492078   0.02030207 0.0092161816 -0.021705564 -0.022170089          nan    619.65722   -53391.237   -25595.753
   13700        0.137    292.44039    7.6863264 -0.016819541 -0.021292194 -0.021693373 -0.022170219          nan    619.29193   -53377.338   -25494.049
   13800        0.138    291.04478    7.7100765  0.025116864  0.020491933 -0.021646738 -0.022119509          nan     616.3365   -53360.812   -25852.284
   13900        0.139    290.29483    7.7460818 -0.023024333  -0.01759794 -0.021644606 -0.022129756          nan    614.74834   -53345.566   -25684.865
   14000         0.14    291.32814    7.8244783  0.019659344  0.015252095 -0.021605158 -0.022092832          nan    616.93655   -53333.989   -26197.966
   14100        0.141    289.43427    7.8265102 -0.013088092 -0.016648748  -0.02159686 -0.022087715          nan    612.92597   -53316.123   -25989.245
   14200        0.142    289.88201    7.8584449  0.022851299  0.019017101 -0.021554292 -0.022044051          nan    613.87413   -53303.226   -26334.378
   14300        0.143    290.38301    7.8930614 -0.0015763817 -0.020272017 -0.021547787 -0.022043508          nan    614.93509    -53290.33   -26237.377
   14400        0.144    290.65541    7.9386583   0.01872612 0.0086795685 -0.021516299 -0.022012475          nan    615.51193   -53276.903   -26553.547
   14500        0.145    288.24473    7.9253352 -0.0019551395 -0.005332819 -0.021492519 -0.021990613          nan    610.40691   -53257.767   -26393.491
   14600        0.146    289.73322    7.9963718 -0.008315551  0.011616432 -0.021467624 -0.021976925          nan    613.55905   -53246.832   -26665.575
   14700        0.147    289.19428    8.0323342 0.0023991844 -0.0010004881 -0.021441996 -0.021956577          nan    612.41775   -53231.497    -26779.11
   14800        0.148    287.69309    8.0220678 -0.029001169  0.021506594 -0.021416749 -0.021935193          nan    609.23872   -53214.111   -26715.244
   14900        0.149    287.66028    8.0699985  0.013724475 -0.00075351667  -0.02138712 -0.021904678          nan    609.16925    -53199.75   -26943.231
   15000         0.15    288.36511    8.0436169 -0.0055405225 -0.023123398 -0.021367737 -0.021882806          nan    610.66184   -53186.944    -26716.51
   15100        0.151    289.86503     8.009349  0.022580725  0.013022977  -0.02133662 -0.021848422          nan    613.83818   -53175.875   -26816.509
   15200        0.152    290.31853    7.8667592 -0.016873746 -0.033512904 -0.021336907 -0.021846588          nan    614.79854   -53162.699   -26054.575
   15300        0.153    292.59979    7.6874063  0.040995206   0.05111153 -0.021277319 -0.021768246          nan    619.62949   -53153.718    -25931.71
   15400        0.154    300.38177    7.3148832 -0.023705618  -0.03372703 -0.021301991 -0.021784245          nan    636.10915   -53156.901   -24191.502
   15500        0.155    310.56808    6.8335628  0.028671026  0.061517304 -0.021263911 -0.021724308          nan    657.68038   -53166.129    -23079.17
   15600        0.156    328.59338    6.0768926 -0.054305874 0.0032310691 -0.021326333 -0.021763137          nan    695.85201   -53193.752   -20086.059
   15700        0.157     349.9769    5.3833154  0.014535402  0.024428597 -0.021332741 -0.021740345          nan    741.13522   -53230.814   -18074.265
   15800        0.158    363.93805    4.6373933  0.051548958 -0.025566959 -0.021380147  -0.02175134          nan    770.70031   -53255.135   -15544.584
   15900        0.159    376.31002    3.9450294  0.025588824 -0.020515676 -0.021462564 -0.021795108          nan    796.90004   -53278.787   -13167.008
   16000         0.16    376.28538    3.3967325  0.017835897  0.040873249  -0.02152006 -0.021819127          nan    796.84787   -53277.693   -11518.139
   16100        0.161    383.02458    2.9185524 -0.015108025 -0.013841913 -0.021627132 -0.021900283          nan    811.11925    -53291.71   -9632.0082
   16200        0.162    384.28542    2.5132043 0.0072497602  0.064284504 -0.021695889 -0.021928739          nan     813.7893   -53295.055   -8615.7952
   16300        0.163    391.04332    2.2023952 -0.0029853183  0.021283681 -0.021799356 -0.022005896          nan    828.10031   -53311.338   -7402.3119
   16400        0.164    392.99985     1.947482   0.01643309 -0.024855808 -0.021889333 -0.022063153          nan    832.24358   -53318.177   -6463.5308
   16500        0.165    399.56344    1.8021243  0.023002338 -0.0032643613 -0.021947533 -0.022109909          nan    846.14309   -53335.512   -6072.8742
   16600        0.166    401.63186    1.6554372  0.017345694  0.015262818 -0.021998583 -0.022150274          nan    850.52331   -53343.667   -5626.8189
   16700        0.167    404.39975    1.5220623 -0.0071849052 -0.018915642 -0.022070587 -0.022204933          nan    856.38479   -53353.953   -4986.5392
   16800        0.168    405.66592    1.5141962 -0.005861296  0.011501671 -0.022085072 -0.022216378          nan    859.06612   -53361.272   -5066.1219
   16900        0.169    406.63752    1.4741978 -0.015798871  0.017131132 -0.022094088 -0.022227678          nan    861.12365   -53368.237   -4918.4335
   17000         0.17    408.79544    1.4546807 -0.038271172 -0.001544997 -0.022120345 -0.022260505          nan    865.69342   -53377.932    -4716.215
   17100        0.171    411.47291    1.3799741  0.039945831 -0.014297978 -0.022127306  -0.02225555          nan     871.3634   -53388.914   -4685.4067
   17200        0.172    411.20364    1.4250032 0.0026900974 -0.025898047 -0.022151605 -0.022284015          nan    870.79318    -53393.82    -4672.651
   17300        0.173    415.44619    1.4285964 -0.012139911   0.07535237 -0.022149227 -0.022281386          nan    879.77749   -53408.288   -4972.6961
   17400        0.174    414.08099    1.3238422 0.0067634716 -0.024715985 -0.022194156 -0.022313782          nan    876.88646   -53411.101   -4352.9657
   17500        0.175    415.30307    1.3450921  0.018904004 -0.0022488516 -0.022182594 -0.022300375          nan    879.47443   -53419.486   -4539.1576
   17600        0.176    414.28934    1.3249708 -0.015053991  0.041946465 -0.022183797 -0.022301975          nan    877.32768   -53423.228   -4506.2108
   17700        0.177     415.8377    1.3587249 0.0068948774  0.010339238 -0.022210224 -0.022321647          nan    880.60658   -53432.514     -4586.53
   17800        0.178    413.89216     1.291808 0.0075090475 -0.038840188  -0.02223117   -0.0223401          nan    876.48657   -53434.335   -4201.5895
   17900        0.179    418.12239    1.2561465  0.033608055   -0.0038504  -0.02225357 -0.022359467          nan     885.4448   -53449.512   -4286.3473
   18000         0.18    413.82535    1.2302221 -0.028155016 -0.010380558 -0.022282066 -0.022393464          nan    876.34511     -53446.6   -3972.2885
   18100        0.181     417.5726    1.2663258 0.00031224206  0.043030606 -0.022264449 -0.022374624          nan    884.28053   -53460.628   -4365.5622
   18200        0.182    416.98469    1.2953278  0.034722518  0.049671954  -0.02225433 -0.022366465          nan    883.03554   -53465.389   -4599.0741
   18300        0.183    417.55101    1.2296757 -0.022344408 -0.025781022 -0.022311582 -0.022420623          nan     884.2348   -53472.782    -3938.501
   18400        0.184    411.66665    1.2083913 -0.0043950042  0.011989088 -0.022314981 -0.022419444          nan    871.77368   -53466.462   -4053.2846
   18500        0.185     412.8057     1.215712 -0.032529224 -0.0080820679 -0.022329453  -0.02244142          nan    874.18582   -53475.122   -3917.0023
   18600        0.186    413.19957    1.2222866  0.010146899 -0.028892302 -0.022323367  -0.02242848          nan     875.0199   -53482.093   -4011.8039
   18700        0.187     412.9248    1.2237834  0.023251994 0.00074515253 -0.022326775 -0.022431236          nan    874.43802   -53487.641   -4159.2686
   18800        0.188    412.10646    1.1729937 -0.082810006  0.019922057  -0.02236452 -0.022478963          nan    872.70506   -53492.078   -3700.3526
   18900        0.189    413.23056    1.2489481  0.032566484  0.039609264 -0.022327041   -0.0224348          nan    875.08552   -53500.619   -4403.7462
   19000         0.19    410.87349    1.2183578 0.0097882894 -0.071825932 -0.022364791 -0.022473849          nan    870.09403   -53501.618   -3854.4007
   19100        0.191    412.05642    1.2359775  0.047758375 -0.010296066 -0.022341289 -0.022442555          nan    872.59909   -53510.186   -4244.7993
   19200        0.192    411.45511    1.2649385 -0.00020249289  0.008627884 -0.022360171    -0.022466          nan     871.3257   -53514.871   -4244.5461
   19300        0.193    409.68344    1.2622841 -0.028557543 -0.020079886 -0.022386532 -0.022503663          nan     867.5739   -53516.985   -4045.4888
   19400        0.194    407.39248    1.2615625  0.041215451  0.038150602 -0.022358205  -0.02246684          nan     862.7224    -53517.89   -4469.7617
   19500        0.195    407.92211    1.2065539 -0.022165338 -0.032424793 -0.022415298 -0.022521304          nan    863.84399   -53524.819   -3839.8791
   19600        0.196    407.01234    1.2287206 -0.013658142 0.0076738521 -0.022405811 -0.022516497          nan     861.9174   -53528.677   -4075.7878
   19700        0.197    407.69594    1.1778383 -0.031116004 0.0010701848  -0.02243352 -0.022536157          nan    863.36503    -53536.07   -3825.9751
   19800        0.198      410.608    1.1616433  0.022851323 -0.044943985  -0.02243129 -0.022529465          nan    869.53182   -53548.051   -3798.5022
   19900        0.199    406.73166    1.1636202  0.038160413 0.0013311429 -0.022418378 -0.022514592          nan      861.323   -53545.692   -4010.3726
   20000          0.2    407.29258    1.1308292 -0.059480826 0.0064373617 -0.022443065 -0.022551295          nan    862.51085   -53552.629   -3592.6193
Loop time of 4282.23 on 4 procs for 20000 steps with 16384 atoms

Pair  time (%) = 4048.18 (94.5344)
Neigh time (%) = 2.66313 (0.0621903)
Comm  time (%) = 147.589 (3.44655)
Outpt time (%) = 0.450873 (0.0105289)
Other time (%) = 83.3473 (1.94635)

######################################
# SIMULATION DONE
print "All done"
All done
