LAMMPS (28 Jun 2014)
# Input file for uniaxial tensile loading of single crystal aluminum
# Mark Tschopp, November 2010

# ------------------------ INITIALIZATION ----------------------------
units 		metal
dimension	3
boundary	p	p	p
atom_style	atomic
variable latparam equal 4.05

# ----------------------- ATOM DEFINITION ----------------------------
lattice		fcc 4.05
Lattice spacing in x,y,z = 4.05 4.05 4.05
region		whole block 0 10 0 10 0 10
create_box	1 whole
Created orthogonal box = (0 0 0) to (40.5 40.5 40.5)
lattice 	fcc 4.05 orient x 1 0 0 orient y 0 1 0 orient z 0 0 1
Lattice spacing in x,y,z = 4.05 4.05 4.05
create_atoms	1 region whole
Created 4000 atoms

# ------------------------ FORCE FIELDS ------------------------------
pair_style	eam/alloy
pair_coeff	* * Al99.ZeroFRho.NegRhoR.NegPhiR.eam.alloy Al

# ------------------------- SETTINGS ---------------------------------
compute csym all centro/atom fcc
compute peratom all pe/atom

######################################
# EQUILIBRATION
reset_timestep	0
timestep 0.001
velocity all create 300 12345 mom yes rot no
fix 1 all npt temp 300 300 1 iso 0 0 1 drag 1

# Set thermo output
thermo 1000
thermo_style custom step lx ly lz press pxx pyy pzz pe temp

# Run for at least 10 picosecond (assuming 1 fs timestep)
run 20000
Step Lx Ly Lz Press Pxx Pyy Pzz PotEng Temp
0         40.5         40.5         40.5    2154.6813    2105.5481    2193.2121    2165.2836   -13449.904          300
Averages over the last 11 of 21 rows, steps 10000 to 20000:
Lx Ly Lz Press Pxx Pyy Pzz PotEng Temp
40.635 40.635 40.635 -0.238686 -20.136 10.5796 8.84029 -13304.2 284.687
Loop time of 253.916 on 4 procs for 20000 steps with 4000 atoms

Pair  time (%) = 211.519 (83.3029)
Neigh time (%) = 0 (0)
Comm  time (%) = 33.2568 (13.0976)
Outpt time (%) = 0.00417006 (0.0016423)
Other time (%) = 9.13555 (3.59786)

unfix 1

# Store final cell length for strain calculations
variable tmp equal "lx"
variable L0 equal 40.6464514186598
Initial Length, L0: 40.6464514186598

######################################
# DEFORMATION
reset_timestep	0

fix		1 all npt temp 300 300 1 y 0 0 1 z 0 0 1 drag 1
variable srate equal 1.0e10
variable srate1 equal "v_srate / 1.0e12"
fix		2 all deform 1 x erate 0.01 units box remap x

# Output strain and stress info to file
# for units metal, pressure is in [bars] = 100 [kPa] = 1/10000 [GPa]
# p2, p3, p4 are in GPa
variable strain equal "(lx - v_L0)/v_L0"
variable p1 equal "v_strain"
variable p2 equal "-pxx/10000"
variable p3 equal "-pyy/10000"
variable p4 equal "-pzz/10000"

# Use cfg for AtomEye
#dump 		1 all cfg 250 dump.tensile_*.cfg id type xs ys zs c_csym c_peratom fx fy fz
#dump_modify 1 element Al

# Display thermo
thermo 	1000
thermo_style	custom step v_strain temp v_p2 v_p3 v_p4 ke pe press

run		20000
Step strain Temp p2 p3 p4 KinEng PotEng Press
0 5.2443156e-16    301.89832  0.012535753   0.02057323  0.024539741    156.05466   -13296.633   -192.16242
Averages over the last 11 of 21 rows, steps 10000 to 20000:
strain Temp p2 p3 p4 KinEng PotEng Press
0.15 343.282 4.6482 -0.00835104 0.0115174 177.446 -13070.9 -15504.6
Loop time of 370.361 on 4 procs for 20000 steps with 4000 atoms

Pair  time (%) = 283.249 (76.4793)
Neigh time (%) = 0.522659 (0.141121)
Comm  time (%) = 58.609 (15.8248)
Outpt time (%) = 0.00374782 (0.00101194)
Other time (%) = 27.9763 (7.55379)

######################################
# SIMULATION DONE
print "All done"
All done
