# ----------------------- ATOM DEFINITION ----------------------------
lattice		fcc 4.05
Lattice spacing in x,y,z = 4.05 4.05 4.05
region		whole block 0 14 0 14 0 14
create_box	1 whole
Created orthogonal box = (0 0 0) to (56.7 56.7 56.7)
lattice 	fcc 4.05 orient x 1 0 0 orient y 0 1 0 orient z 0 0 1
Lattice spacing in x,y,z = 4.05 4.05 4.05
create_atoms	1 region whole
Created 10976 atoms

# ------------------------ FORCE FIELDS ------------------------------

#****************USE THIS TO TEST******************
pair_style	eam/rad
pair_coeff 			* * Al99.PC0.05.eam.alloy.rad.txt Al # pc = 0.5

# ------------------------- SETTINGS ---------------------------------
compute csym all centro/atom fcc
compute peratom all pe/atom

######################################
# EQUILIBRATION
reset_timestep	0
timestep	0.001 # default
# timestep	0.0001 # tiny time step
velocity all create 300 12345 mom yes rot no
fix 1 all npt temp 300 300 1 iso 0 0 1 drag 1

# Set thermo output
thermo 50
# thermo 1 # debug mode

# thermo_style custom step lx ly lz press pxx pyy pzz pe temp
# IMPLEMENTATION HERE

# VERSION add rad variables .v1 .v2
# thermo_style custom step lx ly lz press pxx pyy pzz pxxrad pyyrad pzzrad pe temp

# VERSION ublb separation .v3
thermo_style custom step lx ly lz press pxx pxxub pxxlb pyy pyyub pyylb pzz pzzub pzzlb pe temp

# Run for at least 10 picosecond (assuming 1 fs timestep)
run 	20000 # default
Step Lx Ly Lz Press Pxx Pxxub Pxxlb Pyy Pyyub Pyylb Pzz Pzzub Pzzlb PotEng Temp
0         56.7         56.7         56.7    2496.5196    2454.4963    245.71825   -240.26454    2519.8171    245.71825   -240.26454    2515.2453    245.71825   -240.26454    -36879.36          300
Averages over the last 201 of 401 rows, steps 10000 to 20000:
Lx Ly Lz Press Pxx Pxxub Pxxlb Pyy Pyyub Pyylb Pzz Pzzub Pzzlb PotEng Temp
56.8876 56.8876 56.8876 -2.23124 -26.8737 214.053 -265.672 -1.34134 239.55 -240.151 21.5213 262.469 -217.25 -36493.9 272.854
Loop time of 3784.11 on 4 procs for 20000 steps with 10976 atoms

Pair  time (%) = 3269.39 (86.3978)
Neigh time (%) = 0 (0)
Comm  time (%) = 327.784 (8.66211)
Outpt time (%) = 1.56497 (0.0413563)
Other time (%) = 185.374 (4.89875)

# run 	200000

# Use this if debug
# run 	1000
# run 200
unfix 1

# Store final cell length for strain calculations
variable tmp equal "lx"
variable L0 equal 56.9072358451624
Initial Length, L0: 56.9072358451624

######################################
# DEFORMATION
reset_timestep	0
set atom * xrad 0 yrad 0 zrad 0 vxrad 0 vyrad 0 vzrad 0
  10976 settings made for xrad
  10976 settings made for yrad
  10976 settings made for zrad
  10976 settings made for vxrad
  10976 settings made for vyrad
  10976 settings made for vzrad
fix		1 all npt temp 300 300 1 y 0 0 1 z 0 0 1 drag 1

variable srate equal 1.0e10
# variable srate equal 1.0e9 # tiny time step

variable srate1 equal "v_srate / 1.0e12"
fix		2 all deform 1 x erate 0.01 units box remap x

# Output strain and stress info to file
# for units metal, pressure is in [bars] = 100 [kPa] = 1/10000 [GPa]
# p2, p3, p4 are in GPa
variable strain equal "(lx - v_L0)/v_L0"
variable p1 equal "v_strain"
variable p2 equal "-pxx/10000"
variable p3 equal "-pyy/10000"
variable p4 equal "-pzz/10000"

# IMPLEMENTATION HERE
variable p5 equal "-pxxrad/10000"

# VERSION add rad variables
# variable p6 equal "-pyyrad/10000"
# variable p7 equal "-pzzrad/10000"

# VERSION ublb coupled/decoupled scheme
variable p6 equal "-pxxub/10000"
variable p7 equal "-pxxlb/10000"

# Use cfg for AtomEye
# dump 		1 all cfg 250 dump.tensile_*.cfg mass type xs ys zs c_csym c_peratom fx fy fz
# dump_modify 1 element Al

# print output to a text file every n timesteps
# dump		2 all custom 50 dump.xyz_rvf_rad.tensile_*.txt mass type id x y z vx vy vz fx fy fz xrad yrad zrad vxrad vyrad vzrad fxrad fyrad fzrad # use for rad developement
# dump		2 all custom 50 dump.xyz_rvf_rad.tensile_*.txt mass type id x y z vx vy vz fx fy fz xrad yrad zrad vxrad vyrad vzrad fxrad fyrad fzrad xub yub zub vxub vyub vzub fxub fyub fzub xlb ylb zlb vxlb vylb vzlb fxlb fylb fzlb # use for ublb developement

# Display thermo
thermo 	50
# thermo 1
# thermo_style	custom step v_strain temp v_p2 v_p3 v_p4 ke pe press

# IMPLEMENTATION HERE
thermo_style	custom step v_strain temp v_p2 v_p3 v_p4 v_p5 v_p6 v_p7 ke pe press
run	20000
Step strain Temp p2 p3 p4 p5 p6 p7 KinEng PotEng Press
0 1.2485982e-16    295.46089  0.011386783  0.022005685  0.013580132 -0.023960175 -0.012648794  0.035242947    419.14972   -36465.179   -156.57533
Averages over the last 201 of 401 rows, steps 10000 to 20000:
strain Temp p2 p3 p4 p5 p6 p7 KinEng PotEng Press
0.15 339.745 4.74976 0.00190751 0.00323867 -0.0220474 4.72764 4.77164 481.972 -35811.3 -15849.7
Loop time of 4837.23 on 4 procs for 20000 steps with 10976 atoms

Pair  time (%) = 4234.64 (87.5427)
Neigh time (%) = 2.19958 (0.045472)
Comm  time (%) = 364.583 (7.53703)
Outpt time (%) = 1.74244 (0.0360215)
Other time (%) = 234.065 (4.83883)

######################################
# SIMULATION DONE
print "All done"
All done
