LAMMPS (28 Jun 2014)
# Input file for uniaxial tensile loading of single crystal aluminum
# Mark Tschopp, November 2010

# ------------------------ INITIALIZATION ----------------------------
units 		metal
dimension	3
boundary	p	p	p
atom_style	atomic
variable latparam equal 4.05

# ----------------------- ATOM DEFINITION ----------------------------
lattice		fcc 4.05
Lattice spacing in x,y,z = 4.05 4.05 4.05
region		whole block 0 10 0 10 0 10
create_box	1 whole
Created orthogonal box = (0 0 0) to (40.5 40.5 40.5)
lattice 	fcc 4.05 orient x 1 0 0 orient y 0 1 0 orient z 0 0 1
Lattice spacing in x,y,z = 4.05 4.05 4.05
create_atoms	1 region whole
Created 4000 atoms

# ------------------------ FORCE FIELDS ------------------------------
pair_style	eam/alloy
pair_coeff	* * Al99.negRhoR.eam.alloy Al

# ------------------------- SETTINGS ---------------------------------
compute csym all centro/atom fcc
compute peratom all pe/atom

######################################
# EQUILIBRATION
reset_timestep	0
timestep 0.001
velocity all create 300 12345 mom yes rot no
fix 1 all npt temp 300 300 1 iso 0 0 1 drag 1

# Set thermo output
thermo 50
thermo_style custom step lx ly lz press pxx pyy pzz pe temp

# Run for at least 10 picosecond (assuming 1 fs timestep)
run 20000
Step Lx Ly Lz Press Pxx Pyy Pzz PotEng Temp
0         40.5         40.5         40.5   -23994.583   -24043.716   -23956.052   -23983.981    -13381.73          300
Averages over the last 201 of 401 rows, steps 10000 to 20000:
Lx Ly Lz Press Pxx Pyy Pzz PotEng Temp
40.1839 40.1839 40.1839 5.74743 32.3078 26.404 -41.4694 -13248.9 287.208
Loop time of 430.529 on 4 procs for 20000 steps with 4000 atoms

Pair  time (%) = 308.351 (71.6214)
Neigh time (%) = 0.00660402 (0.00153393)
Comm  time (%) = 87.7441 (20.3805)
Outpt time (%) = 0.358731 (0.0833232)
Other time (%) = 34.0685 (7.91317)

unfix 1

# Store final cell length for strain calculations
variable tmp equal "lx"
variable L0 equal 40.1918125405159
Initial Length, L0: 40.1918125405159

######################################
# DEFORMATION
reset_timestep	0

fix		1 all npt temp 300 300 1 y 0 0 1 z 0 0 1 drag 1
variable srate equal 1.0e10
variable srate1 equal "v_srate / 1.0e12"
fix		2 all deform 1 x erate 0.01 units box remap x

# Output strain and stress info to file
# for units metal, pressure is in [bars] = 100 [kPa] = 1/10000 [GPa]
# p2, p3, p4 are in GPa
variable strain equal "(lx - v_L0)/v_L0"
variable p1 equal "v_strain"
variable p2 equal "-pxx/10000"
variable p3 equal "-pyy/10000"
variable p4 equal "-pzz/10000"

# Use cfg for AtomEye
#dump 		1 all cfg 250 dump.tensile_*.cfg id type xs ys zs c_csym c_peratom fx fy fz
#dump_modify 1 element Al

# Display thermo
thermo 	50
thermo_style	custom step v_strain temp v_p2 v_p3 v_p4 ke pe press

run		20000
Step strain Temp p2 p3 p4 KinEng PotEng Press
0            0    300.56732 -0.011494533 0.0028648249  0.034472066    155.36665   -13242.753   -86.141193
Averages over the last 201 of 401 rows, steps 10000 to 20000:
strain Temp p2 p3 p4 KinEng PotEng Press
0.15 339.772 6.986 0.0036284 0.00247784 175.632 -12954.7 -23307
Loop time of 528.289 on 4 procs for 20000 steps with 4000 atoms

Pair  time (%) = 370.177 (70.0709)
Neigh time (%) = 0.407055 (0.0770517)
Comm  time (%) = 110.358 (20.8897)
Outpt time (%) = 0.655026 (0.12399)
Other time (%) = 46.6921 (8.83837)

######################################
# SIMULATION DONE
print "All done"
All done
