LAMMPS (28 Jun 2014)
# Input file for uniaxial tensile loading of single crystal aluminum
# Mark Tschopp, November 2010

# ------------------------ INITIALIZATION ----------------------------
units 		metal
dimension	3
boundary	p	p	p
atom_style	atomic
variable latparam equal 4.05

# ----------------------- ATOM DEFINITION ----------------------------
lattice		fcc 4.05
Lattice spacing in x,y,z = 4.05 4.05 4.05
region		whole block 0 10 0 10 0 10
create_box	1 whole
Created orthogonal box = (0 0 0) to (40.5 40.5 40.5)
lattice 	fcc 4.05 orient x 1 0 0 orient y 0 1 0 orient z 0 0 1
Lattice spacing in x,y,z = 4.05 4.05 4.05
create_atoms	1 region whole
Created 4000 atoms

# ------------------------ FORCE FIELDS ------------------------------
pair_style	eam/alloy
pair_coeff	* * Al99.PosFRho.NegRhoR.ZeroPhiR.eam.alloy Al

# ------------------------- SETTINGS ---------------------------------
compute csym all centro/atom fcc
compute peratom all pe/atom

######################################
# EQUILIBRATION
reset_timestep	0
timestep 0.001
velocity all create 300 12345 mom yes rot no
fix 1 all npt temp 300 300 1 iso 0 0 1 drag 1

# Set thermo output
thermo 1000
thermo_style custom step lx ly lz press pxx pyy pzz pe temp

# Run for at least 10 picosecond (assuming 1 fs timestep)
run 20000
Step Lx Ly Lz Press Pxx Pyy Pzz PotEng Temp
0         40.5         40.5         40.5    2477.3029    2428.1698    2515.8337    2487.9052    -13435.68          300
Averages over the last 11 of 21 rows, steps 10000 to 20000:
Lx Ly Lz Press Pxx Pyy Pzz PotEng Temp
40.6403 40.6403 40.6403 8.98256 -20.8076 -18.7266 66.4819 -13289.4 283.722
Loop time of 210.959 on 4 procs for 20000 steps with 4000 atoms

Pair  time (%) = 188.135 (89.1809)
Neigh time (%) = 0 (0)
Comm  time (%) = 16.8882 (8.00548)
Outpt time (%) = 0.00326747 (0.00154887)
Other time (%) = 5.93224 (2.81204)

unfix 1

# Store final cell length for strain calculations
variable tmp equal "lx"
variable L0 equal 40.649615449594
Initial Length, L0: 40.649615449594

######################################
# DEFORMATION
reset_timestep	0

fix		1 all npt temp 300 300 1 y 0 0 1 z 0 0 1 drag 1
variable srate equal 1.0e10
variable srate1 equal "v_srate / 1.0e12"
fix		2 all deform 1 x erate 0.01 units box remap x

# Output strain and stress info to file
# for units metal, pressure is in [bars] = 100 [kPa] = 1/10000 [GPa]
# p2, p3, p4 are in GPa
variable strain equal "(lx - v_L0)/v_L0"
variable p1 equal "v_strain"
variable p2 equal "-pxx/10000"
variable p3 equal "-pyy/10000"
variable p4 equal "-pzz/10000"

# Use cfg for AtomEye
#dump 		1 all cfg 250 dump.tensile_*.cfg id type xs ys zs c_csym c_peratom fx fy fz
#dump_modify 1 element Al

# Display thermo
thermo 	1000
thermo_style	custom step v_strain temp v_p2 v_p3 v_p4 ke pe press

run		20000
Step strain Temp p2 p3 p4 KinEng PotEng Press
0 -1.2235784e-15    301.74712 0.0098396147  0.016567119 -0.00096586206     155.9765   -13282.274   -84.802907
Averages over the last 11 of 21 rows, steps 10000 to 20000:
strain Temp p2 p3 p4 KinEng PotEng Press
0.15 342.93 4.63807 0.00188027 -0.00599031 177.265 -13059.1 -15446.5
Loop time of 267.75 on 4 procs for 20000 steps with 4000 atoms

Pair  time (%) = 241.358 (90.1431)
Neigh time (%) = 0.495176 (0.18494)
Comm  time (%) = 18.6969 (6.98297)
Outpt time (%) = 0.00281858 (0.00105269)
Other time (%) = 7.19706 (2.68798)

######################################
# SIMULATION DONE
print "All done"
All done
