LAMMPS (28 Jun 2014)
# Input file for uniaxial tensile loading of single crystal aluminum
# Mark Tschopp, November 2010

# ------------------------ INITIALIZATION ----------------------------
units 		metal
dimension	3
boundary	p	p	p
atom_style	atomic
variable latparam equal 4.05

# ----------------------- ATOM DEFINITION ----------------------------
lattice		fcc 4.05
Lattice spacing in x,y,z = 4.05 4.05 4.05
region		whole block 0 10 0 10 0 10
create_box	1 whole
Created orthogonal box = (0 0 0) to (40.5 40.5 40.5)
lattice 	fcc 4.05 orient x 1 0 0 orient y 0 1 0 orient z 0 0 1
Lattice spacing in x,y,z = 4.05 4.05 4.05
create_atoms	1 region whole
Created 4000 atoms

# ------------------------ FORCE FIELDS ------------------------------
pair_style	eam/alloy
pair_coeff	* * Al99.posPhiR.eam.alloy Al

# ------------------------- SETTINGS ---------------------------------
compute csym all centro/atom fcc
compute peratom all pe/atom

######################################
# EQUILIBRATION
reset_timestep	0
timestep 0.001
velocity all create 300 12345 mom yes rot no
fix 1 all npt temp 300 300 1 iso 0 0 1 drag 1

# Set thermo output
thermo 50
thermo_style custom step lx ly lz press pxx pyy pzz pe temp

# Run for at least 10 picosecond (assuming 1 fs timestep)
run 20000
Step Lx Ly Lz Press Pxx Pyy Pzz PotEng Temp
0         40.5         40.5         40.5    80182.621    80133.488    80221.152    80193.223   -10781.015          300
Averages over the last 201 of 401 rows, steps 10000 to 20000:
Lx Ly Lz Press Pxx Pyy Pzz PotEng Temp
41.9553 41.9553 41.9553 0.491911 -21.7491 29.8886 -6.66376 -10774.6 272.077
Loop time of 321.013 on 4 procs for 20000 steps with 4000 atoms

Pair  time (%) = 247.596 (77.1295)
Neigh time (%) = 0.0194033 (0.00604442)
Comm  time (%) = 52.3354 (16.3032)
Outpt time (%) = 0.380589 (0.118559)
Other time (%) = 20.6817 (6.44264)

unfix 1

# Store final cell length for strain calculations
variable tmp equal "lx"
variable L0 equal 41.9873502631202
Initial Length, L0: 41.9873502631202

######################################
# DEFORMATION
reset_timestep	0

fix		1 all npt temp 300 300 1 y 0 0 1 z 0 0 1 drag 1
variable srate equal 1.0e10
variable srate1 equal "v_srate / 1.0e12"
fix		2 all deform 1 x erate 0.01 units box remap x

# Output strain and stress info to file
# for units metal, pressure is in [bars] = 100 [kPa] = 1/10000 [GPa]
# p2, p3, p4 are in GPa
variable strain equal "(lx - v_L0)/v_L0"
variable p1 equal "v_strain"
variable p2 equal "-pxx/10000"
variable p3 equal "-pyy/10000"
variable p4 equal "-pzz/10000"

# Use cfg for AtomEye
#dump 		1 all cfg 250 dump.tensile_*.cfg id type xs ys zs c_csym c_peratom fx fy fz
#dump_modify 1 element Al

# Display thermo
thermo 	50
thermo_style	custom step v_strain temp v_p2 v_p3 v_p4 ke pe press

run		20000
Step strain Temp p2 p3 p4 KinEng PotEng Press
0 -1.0153669e-15    294.72387  0.014287031  0.018797438  0.049799334     152.3461   -10760.543   -276.27934
Averages over the last 201 of 401 rows, steps 10000 to 20000:
strain Temp p2 p3 p4 KinEng PotEng Press
0.15 329.882 1.57619 0.00382018 0.000899923 170.52 -10634.4 -5269.69
Loop time of 398.875 on 4 procs for 20000 steps with 4000 atoms

Pair  time (%) = 298.395 (74.8092)
Neigh time (%) = 0.909203 (0.227942)
Comm  time (%) = 69.8011 (17.4995)
Outpt time (%) = 0.230623 (0.0578185)
Other time (%) = 29.5388 (7.40553)

######################################
# SIMULATION DONE
print "All done"
All done
