# ----------------------- ATOM DEFINITION ----------------------------
lattice		fcc 4.05
Lattice spacing in x,y,z = 4.05 4.05 4.05
region		whole block 0 10 0 10 0 10
create_box	1 whole
Created orthogonal box = (0 0 0) to (40.5 40.5 40.5)
lattice 	fcc 4.05 orient x 1 0 0 orient y 0 1 0 orient z 0 0 1
Lattice spacing in x,y,z = 4.05 4.05 4.05
create_atoms	1 region whole
Created 4000 atoms

# ------------------------ FORCE FIELDS ------------------------------

#****************USE THIS TO TEST******************
pair_style	eam/rad
pair_coeff 		* * Al99.PC0.1.eam.alloy.rad.txt Al # pc = 0.5   error generating

# to test with error = 0 use this potential
# pair_coeff	* * Al99.eam.alloy.005pcrad_NULL_noerror Al

#****************USE THIS TO RUN REFRENCE***********
# pair_style	eam/alloy
# pair_coeff	* * Al99.eam.alloy Al

# ------------------------- SETTINGS ---------------------------------
compute csym all centro/atom fcc
compute peratom all pe/atom

######################################
# EQUILIBRATION
reset_timestep	0
timestep	0.001 # default
# timestep	0.0001 # tiny time step
velocity all create 300 12345 mom yes rot no
fix 1 all npt temp 300 300 1 iso 0 0 1 drag 1

# Set thermo output
thermo 50
# thermo 1 # debug mode

# thermo_style custom step lx ly lz press pxx pyy pzz pe temp
# IMPLEMENTATION HERE

# VERSION add rad variables .v1 .v2
# thermo_style custom step lx ly lz press pxx pyy pzz pxxrad pyyrad pzzrad pe temp

# VERSION ublb separation .v3
thermo_style custom step lx ly lz press pxx pxxrad pyy pyyrad pzz pzzrad pe temp

# Run for at least 10 picosecond (assuming 1 fs timestep)
run 	20000 # default
Step Lx Ly Lz Press Pxx Pxxrad Pyy Pyyrad Pzz Pzzrad PotEng Temp
0         40.5         40.5         40.5    2496.1233    2446.9902    575.11888    2534.6541    575.11888    2506.7256    575.11888       -13440          300
Averages over the last 201 of 401 rows, steps 10000 to 20000:
Lx Ly Lz Press Pxx Pxxrad Pyy Pyyrad Pzz Pzzrad PotEng Temp
40.6409 40.6409 40.6409 -0.413478 -9.04404 567.83 -12.8334 567.868 20.637 567.796 -13293.4 284.383
Loop time of 1101.39 on 4 procs for 20000 steps with 4000 atoms

Pair  time (%) = 994.827 (90.3248)
Neigh time (%) = 0 (0)
Comm  time (%) = 72.6364 (6.59498)
Outpt time (%) = 0.114003 (0.0103508)
Other time (%) = 33.8111 (3.06986)

# run 	200000

# Use this if debug
# run 	1000
# run 200
unfix 1

# Store final cell length for strain calculations
variable tmp equal "lx"
variable L0 equal 40.6483922577475
Initial Length, L0: 40.6483922577475

######################################
# DEFORMATION
reset_timestep	0
set atom * xrad 0 yrad 0 zrad 0 vxrad 0 vyrad 0 vzrad 0
  4000 settings made for xrad
  4000 settings made for yrad
  4000 settings made for zrad
  4000 settings made for vxrad
  4000 settings made for vyrad
  4000 settings made for vzrad
fix		1 all npt temp 300 300 1 y 0 0 1 z 0 0 1 drag 1

variable srate equal 1.0e10
# variable srate equal 1.0e9 # tiny time step

variable srate1 equal "v_srate / 1.0e12"
fix		2 all deform 1 x erate 0.01 units box remap x

# Output strain and stress info to file
# for units metal, pressure is in [bars] = 100 [kPa] = 1/10000 [GPa]
# p2, p3, p4 are in GPa
variable strain equal "(lx - v_L0)/v_L0"
variable p1 equal "v_strain"
variable p2 equal "-pxx/10000"
variable p3 equal "-pyy/10000"
variable p4 equal "-pzz/10000"

# IMPLEMENTATION HERE
variable p5 equal "-pxxrad/10000"

# VERSION add rad variables
variable p6 equal "-pyyrad/10000"
variable p7 equal "-pzzrad/10000"

# VERSION ublb coupled/decoupled scheme
# variable p6 equal "-pxxub/10000"
# variable p7 equal "-pxxlb/10000"

# Use cfg for AtomEye
# dump 		1 all cfg 250 dump.tensile_*.cfg mass type xs ys zs c_csym c_peratom fx fy fz
# dump_modify 1 element Al

# print output to a text file every n timesteps
# dump		2 all custom 50 dump.xyz_rvf_rad.tensile_*.txt mass type id x y z vx vy vz fx fy fz xrad yrad zrad vxrad vyrad vzrad fxrad fyrad fzrad # use for rad developement
# dump		2 all custom 50 dump.xyz_rvf_rad.tensile_*.txt mass type id x y z vx vy vz fx fy fz xrad yrad zrad vxrad vyrad vzrad fxrad fyrad fzrad xub yub zub vxub vyub vzub fxub fyub fzub xlb ylb zlb vxlb vylb vzlb fxlb fylb fzlb # use for ublb developement

# Display thermo
thermo 	50
# thermo 1
# thermo_style	custom step v_strain temp v_p2 v_p3 v_p4 ke pe press

# IMPLEMENTATION HERE
thermo_style	custom step v_strain temp v_p2 v_p3 v_p4 v_p5 v_p6 v_p7 ke pe press
run	20000
Step strain Temp p2 p3 p4 p5 p6 p7 KinEng PotEng Press
0            0    295.05319  -0.02368314 -0.029812899 -0.0083852874 -0.056713678 -0.056728826 -0.056726002    152.51633   -13283.071    206.27109
     100        0.001    295.42717   0.06301276   0.02872752  0.009142002          nan -0.056659961          nan    152.70965   -13283.145   -336.27427
     200        0.002    301.05276   0.11977248 -0.063221078 0.0076251495          nan -0.056698915          nan    155.61758   -13285.908   -213.92183
     300        0.003    297.59578   0.20177241  0.017257887  0.043740917          nan -0.056579394          nan    153.83063   -13283.947   -875.90403
     400        0.004     302.2837   0.23780181 -0.012340809 -0.030440108          nan -0.056646502          nan    156.25386   -13286.167   -650.06963
     500        0.005    296.61352   0.31253741 0.0079158149  0.014220882          nan -0.056577015          nan    153.32289   -13283.004   -1115.5803
     600        0.006    295.36034   0.37703246 -0.0086069583 -0.0076705015          nan -0.056570185          nan     152.6751   -13282.091   -1202.5167
     700        0.007    298.20205   0.43576674 -0.025363065 -0.014081269          nan  -0.05654235          nan    154.14402   -13283.265   -1321.0747
     800        0.008    302.13311   0.52029438  0.027130983  0.018111419          nan -0.056463215          nan    156.17602   -13284.977   -1885.1226
     900        0.009    300.31698   0.57208332 0.0015430849 -0.0065144422          nan -0.056487152          nan    155.23725   -13283.688   -1890.3732
    1000         0.01    301.50988   0.65335757 0.0023734946  0.040408462          nan -0.056409893          nan    155.85387   -13283.925   -2320.4651
    1100        0.011    299.92421   0.69534003    0.0050105 0.0089962338          nan -0.056437387          nan    155.03422   -13282.701   -2364.4892
    1200        0.012    298.11516   0.74283245 0.0023225495 -0.0056781198          nan -0.056393528          nan     154.0991   -13281.331   -2464.9229
    1300        0.013    300.38579   0.81874177 -0.0076835348  0.011580456          nan -0.056377216          nan    155.27282   -13282.048    -2742.129
    1400        0.014    298.92375   0.91345678 0.0073932019  -0.01098955          nan -0.056329628          nan    154.51707   -13280.801   -3032.8681
    1500        0.015    297.04973   0.96477228 -0.0038140823 0.0042775993          nan -0.056310978          nan    153.54837   -13279.319   -3217.4527
    1600        0.016    300.47997    1.0189589 -0.0051068267 -0.018145599          nan -0.056321606          nan     155.3215   -13280.543   -3319.0216
    1700        0.017     299.1915    1.1279416  0.018829441  0.025145113          nan -0.056219701          nan    154.65547   -13279.296   -3906.3871
    1800        0.018    297.54899    1.1340796 -0.038355047 -0.0038681782          nan -0.056263234          nan    153.80644   -13277.838   -3639.5214
    1900        0.019      301.905    1.2428105  0.013249417  0.042858646          nan -0.056151274          nan    156.05811   -13279.452   -4329.7287
    2000         0.02    301.39312     1.287643 -0.020410125 0.0014033429          nan -0.056189268          nan    155.79352   -13278.523   -4228.7873
    2100        0.021    296.57933    1.3530512  0.024545494   0.01259576          nan   -0.0561131          nan    153.30522    -13275.34    -4633.975
    2200        0.022     300.8428     1.412048 0.0012920287 -0.0021998856          nan -0.056158423          nan    155.50905   -13276.825   -4703.8004
    2300        0.023    297.44991    1.4709187 0.0051088264 -0.0080936701          nan -0.056099333          nan    153.75522   -13274.321   -4893.1129
    2400        0.024    297.54615     1.539138 -0.0043798112  0.014949503          nan -0.056092992          nan    153.80497   -13273.602   -5165.6921
    2500        0.025    297.21842    1.5902559  -0.03311447 0.0058390706          nan -0.056095611          nan    153.63556    -13272.64   -5209.9351
    2600        0.026    296.45283    1.6611498 -0.012557481  0.027613457          nan -0.056020679          nan    153.23982   -13271.422   -5587.3527
    2700        0.027    299.01917     1.704902 -0.037149708 -0.012826785          nan  -0.05604262          nan    154.56639   -13271.892   -5516.4185
    2800        0.028    307.06192    1.8364285  0.012779723  0.029960898          nan -0.055939769          nan    158.72378   -13275.167   -6263.8972
    2900        0.029    298.82632    1.8278992 -0.034723123  0.023443073          nan -0.055978006          nan    154.46671   -13270.005   -6055.3973
    3000         0.03    297.08106     1.903764 -0.032824072 -0.0045135911          nan -0.055965945          nan    153.56456   -13268.172    -6221.421
    3100        0.031    296.18725    1.9856293  0.045357593  0.027168871          nan -0.055887681          nan    153.10254   -13266.743   -6860.5192
    3200        0.032    295.69797    2.0031751 -0.018824519 -0.066757497          nan -0.055965031          nan    152.84963   -13265.506   -6391.9768
    3300        0.033    296.99658    2.1116954  0.034580846    0.0282224          nan  -0.05582564          nan    153.52089   -13265.162   -7248.3287
    3400        0.034     297.6866    2.1059411 -0.041805527 -0.046066095          nan -0.055954393          nan    153.87757    -13264.48   -6726.8982
    3500        0.035    295.38726     2.223179  0.016391681   0.03626556          nan -0.055788631          nan    152.68902   -13262.223   -7586.1207
    3600        0.036     298.1314    2.2553092 -0.011210393 -0.017247276          nan -0.055821276          nan    154.10749   -13262.551   -7422.8383
    3700        0.037    293.53766    2.2946792 -0.032415349 -0.021033441          nan -0.055827735          nan    151.73294   -13259.067   -7470.7681
    3800        0.038    297.10803    2.4218171  0.029756495  0.023019365          nan -0.055741102          nan     153.5785   -13259.769   -8248.6431
    3900        0.039    302.84281    2.4471813 -0.017592294 -0.041187509          nan -0.055772226          nan    156.54288   -13261.573   -7961.3383
    4000         0.04    298.66148    2.5445055  0.033778704  0.037010058          nan -0.055674742          nan     154.3815   -13258.223   -8717.6477
    4100        0.041     302.9923    2.5885304 -0.024936895 -0.024123607          nan -0.055735371          nan    156.62015   -13259.242   -8464.8997
    4200        0.042    295.23504    2.6238895  0.028754394 -0.016571959          nan -0.055681692          nan    152.61033   -13253.997   -8786.9064
    4300        0.043    292.17189    2.6621029 -0.015119507 -0.015965121          nan -0.055683612          nan    151.02696   -13251.148   -8770.0609
    4400        0.044    297.74582     2.746018 -0.027389178  0.012197353          nan -0.055654751          nan    153.90818   -13252.736    -9102.754
    4500        0.045    297.25924    2.8030405 0.0045777665  0.022483889          nan -0.055594916          nan    153.65667   -13251.169   -9433.6738
    4600        0.046    301.74444    2.8724511  0.051709911 -0.012316009          nan  -0.05556414          nan    155.97512   -13252.132   -9706.1501
    4700        0.047    294.13308    2.9169228 0.0035917204 -0.016751448          nan -0.055553408          nan    152.04072   -13246.829   -9679.2102
    4800        0.048    298.80154    2.9959196  0.023732365 -0.010879241          nan -0.055512524          nan     154.4539   -13247.847   -10029.242
    4900        0.049     299.3143    3.0417348  -0.00253436 -0.024125699          nan -0.055525351          nan    154.71895     -13246.7   -10050.249
    5000         0.05    301.19171    3.1276593  0.022999585  0.055372935          nan -0.055437839          nan     155.6894   -13246.234   -10686.773
    5100        0.051    297.45326    3.1539132 -0.046322016 -0.021357721          nan -0.055511334          nan    153.75696   -13242.832   -10287.445
    5200        0.052     296.9309    3.2386035  0.015271508  0.030084288          nan -0.055399033          nan    153.48694   -13241.069   -10946.531
    5300        0.053     299.0554    3.2934108 -0.012045692 -0.015707021          nan  -0.05541909          nan    154.58512   -13240.659   -10885.527
    5400        0.054    297.35019    3.3424285  0.023086269 -0.013865812          nan -0.055362081          nan    153.70368   -13238.234   -11172.163
    5500        0.055    295.07703    3.3868832 -0.0067934096 -0.020396087          nan -0.055381198          nan    152.52866   -13235.514   -11198.979
    5600        0.056    301.39711    3.4653804 0.0050087383  0.030795595          nan  -0.05537435          nan    155.79558   -13237.193   -11670.616
    5700        0.057    302.33822    3.5320459 -0.017306053  0.045758238          nan -0.055344295          nan    156.28205   -13236.066   -11868.327
    5800        0.058    298.87619     3.591932 -0.019896206 -0.024690391          nan -0.055318636          nan    154.49249   -13232.644   -11824.485
    5900        0.059    296.27359    3.6642386  0.046351765 -0.0065678213          nan -0.055228186          nan    153.14717    -13229.64   -12346.742
    6000         0.06    293.90218    3.6869601 -0.0017507995  -0.04876057          nan -0.055270132          nan    151.92136   -13226.729   -12121.496
    6100        0.061    296.81875    3.7567425  0.016832321  0.029340039          nan -0.055201364          nan    153.42897   -13226.535   -12676.383
    6200        0.062    297.62806    3.7838742 -0.0063994282 -0.035517066          nan -0.055252999          nan    153.84731    -13225.22   -12473.192
    6300        0.063    297.01891    3.8793894  0.018329749 0.0075551163          nan  -0.05515372          nan    153.53244   -13223.153   -13017.581
    6400        0.064     300.0686    3.9586014 -0.0013725591 -0.016584533          nan -0.055178822          nan    155.10886   -13222.943   -13135.481
    6500        0.065    295.19391    3.9941886 0.0059989835 -0.040263996          nan -0.055136284          nan    152.58907   -13218.621   -13199.745
    6600        0.066    299.49308    4.0866957  0.048690053  0.032767488          nan -0.055060961          nan    154.81136   -13219.011   -13893.844
    6700        0.067     296.5412     4.065192 -0.063238046 -0.020974964          nan -0.055151347          nan     153.2855   -13215.643    -13269.93
    6800        0.068    300.76649    4.2125262  0.022616033  0.039164622          nan -0.054980099          nan     155.4696   -13215.952   -14247.689
    6900        0.069    293.70756    4.1907655 -0.026125956 -0.042331676          nan -0.055058852          nan    151.82076   -13210.412   -13741.026
    7000         0.07    293.12083     4.295548   0.00484267 -0.018741935          nan -0.054957156          nan    151.51747   -13208.187   -14272.162
    7100        0.071    297.85468    4.3449056 0.0095985868 -0.0097755489          nan -0.054950636          nan    153.96446   -13208.696   -14482.429
    7200        0.072    295.98076    4.3983491 -0.031275506 -0.043523316          nan -0.055003534          nan    152.99581    -13205.76   -14411.834
    7300        0.073    301.10811    4.5039814   0.06372501  0.041003865          nan -0.054843963          nan    155.64619    -13206.42   -15362.367
    7400        0.074    301.75346    4.4805148 -0.055810604 -0.037184991          nan -0.054984295          nan    155.97978   -13204.754   -14625.064
    7500        0.075    297.72557     4.609548  0.061511101  0.045419079          nan -0.054768847          nan    153.89772   -13200.642   -15721.594
    7600        0.076    299.26835    4.5825482 -0.035549121 -0.023023699          nan -0.054899945          nan     154.6952   -13199.404   -15079.918
    7700        0.077    293.38467     4.690091  0.020642148 0.0045046244          nan -0.054788133          nan    151.65386    -13194.29   -15717.459
    7800        0.078    298.85473    4.7378086 -0.003919178  0.033909117          nan -0.054798706          nan    154.48139   -13195.025   -15892.662
    7900        0.079    301.68056    4.8239052  0.018820017 0.0003996034          nan -0.054785221          nan     155.9421   -13194.362    -16143.75
    8000         0.08    297.51119    4.8405086   0.03297672  0.019940971          nan -0.054730127          nan     153.7869   -13190.066   -16311.421
    8100        0.081    296.56636    4.8506139 -0.051407067 -0.016973168          nan -0.054794235          nan    153.29851   -13187.422   -15940.779
    8200        0.082    300.24269    4.9801962  0.057729169  0.055111674          nan -0.054620428          nan    155.19884   -13187.148    -16976.79
    8300        0.083    296.28784    4.9888579 -0.013314461 -0.072836902          nan -0.054690743          nan    153.15454   -13182.888   -16342.355
    8400        0.084    301.63377     5.087587   0.04468856 0.0087819677          nan -0.054589724          nan    155.91791   -13183.421   -17136.858
    8500        0.085    294.95823    5.1054048 -0.036500546 0.0040642006          nan -0.054616452          nan    152.46725   -13177.738   -16909.895
    8600        0.086    293.09655    5.1623223 0.0081498692 -0.0074220347          nan -0.054575994          nan    151.50492   -13174.502   -17210.167
    8700        0.087    302.10535     5.260905 -0.0071423212  0.020998762          nan -0.054549538          nan    156.16168   -13176.863   -17582.538
    8800        0.088    296.71453    5.2534156 -0.0074919516 -0.026456729          nan -0.054535248          nan     153.3751   -13171.765   -17398.223
    8900        0.089     297.5505    5.3549116  0.012822587 0.0011849929          nan -0.054480115          nan    153.80722   -13169.847   -17896.397
    9000         0.09    299.90818    5.4014734  0.033859091 0.0093173659          nan -0.054445316          nan    155.02593   -13168.706   -18148.833
    9100        0.091    293.90307    5.4294858 -0.0043172206 -0.033675289          nan  -0.05445193          nan    151.92182   -13163.212   -17971.644
    9200        0.092    299.64819    5.5197664 0.0087843688  0.049321316          nan  -0.05436993          nan    154.89154   -13163.771   -18592.907
    9300        0.093    296.57934    5.5279826 0.0029019445 -0.026274498          nan -0.054426885          nan    153.30522   -13159.759     -18348.7
    9400        0.094    296.71532    5.5990418  0.019557138  0.016629825          nan -0.054319765          nan    153.37551   -13157.384   -18784.096
    9500        0.095    299.53035    5.6705357 0.0061389212 -0.0056646993          nan -0.054304873          nan    154.83063   -13156.369   -18903.366
    9600        0.096    293.60882    5.7020511 0.0034854801 0.0011863367          nan -0.054274696          nan    151.76972   -13150.811    -19022.41
    9700        0.097    301.96286    5.7698878 0.0024852429   0.01257853          nan -0.054257669          nan    156.08802   -13152.613   -19283.172
    9800        0.098    299.52193    5.8441253 0.0096543151 0.0063679754          nan -0.054204538          nan    154.82627   -13148.811   -19533.825
    9900        0.099    295.44308    5.8711818  -0.01153101  0.027269711          nan -0.054144042          nan    152.71787   -13144.138   -19623.068
   10000          0.1    300.72513    5.9633603 0.0068624964 0.0081389887          nan -0.054151865          nan    155.44822   -13144.275   -19927.873
   10100        0.101    297.00876    6.0026343  0.012510813 0.0036878069          nan -0.054091705          nan    153.52719   -13139.746   -20062.776
   10200        0.102    300.12322    6.0297349  0.024842133 -0.015853109          nan -0.054085819          nan    155.13709   -13138.727    -20129.08
   10300        0.103    299.29435    6.1030296  0.019831197  0.010751677          nan -0.054007593          nan    154.70864   -13135.651   -20445.375
   10400        0.104    293.07747    6.1222272 -0.011560171  0.006666539          nan -0.054021925          nan    151.49506   -13129.771   -20391.112
   10500        0.105    296.79888    6.1910305 -0.023793835 -0.027123346          nan  -0.05404341          nan     153.4187   -13128.991   -20467.044
   10600        0.106    299.76657    6.2546043   0.06431193  0.029646855          nan -0.053880007          nan    154.95273   -13127.825   -21161.877
   10700        0.107    299.28575    6.3159878 -0.058843209 0.0088751701          nan -0.053989267          nan    154.70419   -13124.827   -20886.733
   10800        0.108    292.71521    6.3511692 0.0050384992 0.0068728816          nan -0.053876723          nan    151.30781   -13118.674   -21210.269
   10900        0.109     298.8772    6.4305164 -0.00089408056  0.022392896          nan -0.053854337          nan    154.49301   -13119.066   -21506.717
   11000         0.11    299.97893    6.4676754 -0.019035911 -0.028130303          nan -0.053851998          nan    155.06251   -13116.826   -21401.697
   11100        0.111     299.5863    6.5498947  0.091887315  0.056198958          nan -0.053654139          nan    154.85955    -13113.79   -22326.603
   11200        0.112     296.1484    6.5058518 -0.090590539 -0.080866067          nan -0.053825833          nan    153.08246    -13109.15   -21114.651
   11300        0.113    297.24181    6.6636634  0.077111258  0.086382672          nan -0.053581605          nan    153.64766   -13106.849   -22757.191
   11400        0.114    298.06909    6.6496498 -0.050346638  -0.04614701          nan -0.053715091          nan    154.07529   -13104.366   -21843.854
   11500        0.115    299.14704    6.7468172  0.032101357  0.064148609          nan -0.053574056          nan    154.63249   -13101.998   -22810.224
   11600        0.116    293.55793    6.7404774 -0.021520116 -0.039617234          nan -0.053599514          nan    151.74342    -13096.17   -22264.467
   11700        0.117    296.00123    6.8133094 -0.020591757  0.018094833          nan -0.053540307          nan    153.00639   -13094.472   -22702.708
   11800        0.118    294.37801    6.8536084  0.021129618 -0.022425111          nan -0.053490867          nan    152.16733   -13090.646   -22841.043
   11900        0.119    292.33603    6.8547663 -0.0061264443   0.01318044          nan -0.053470103          nan     151.1118   -13086.595   -22872.734
   12000         0.12    291.96554     6.947103 0.0022161909 0.0015750599          nan  -0.05340745          nan    150.92029   -13083.376   -23169.648
   12100        0.121    294.02049    6.9783208 -0.028391655 -0.024847618          nan -0.053413972          nan    151.98252   -13081.395   -23083.605
   12200        0.122    295.82714    7.0244468  0.044592407    0.0127764          nan -0.053278306          nan     152.9164   -13079.277   -23606.052
   12300        0.123    298.01628    7.0698692 -0.0021911564 -0.017788043          nan -0.053309701          nan    154.04799   -13077.332   -23499.633
   12400        0.124    294.43138    7.1635638 -0.00014925726  0.012730141          nan -0.053218879          nan    152.19491   -13072.373   -23920.482
   12500        0.125    293.71105     7.158247 -0.059450622  0.019443144          nan   -0.0532567          nan    151.82256   -13068.865   -23727.465
   12600        0.126    295.59709    7.2102443  0.022693333 0.0097608152          nan -0.053115916          nan    152.79748   -13066.711   -24142.328
   12700        0.127    293.71738    7.2596443  0.022766107 -0.0046522066          nan -0.053091272          nan    151.82584   -13062.553   -24259.194
   12800        0.128    294.48612    7.2646706 -0.026622324 -0.027744471          nan -0.053111843          nan    152.22321   -13059.747   -24034.346
   12900        0.129    292.68474    7.3768856  0.051843994  0.012094012          nan -0.052980482          nan    151.29206   -13055.618   -24802.745
   13000         0.13    298.82119    7.4376398 -0.029892625 -0.0014980496          nan -0.053093072          nan    154.46405   -13055.545   -24687.497
   13100        0.131    288.95533    7.4334339 0.0014185076  0.064310785          nan -0.052892087          nan    149.36428   -13047.194   -24997.211
   13200        0.132      289.056    7.4317655  -0.04521195   -0.0264279          nan -0.052969894          nan    149.41632   -13043.972   -24533.752
   13300        0.133    291.78828    7.5752073   -0.0170231  0.028215689          nan -0.052896652          nan    150.82867   -13042.088       -25288
   13400        0.134    298.65123    7.6275136  0.036511732  0.028248571          nan -0.052802487          nan     154.3762   -13042.323   -25640.913
   13500        0.135    290.77694    7.5446938 -0.035204153  -0.02024705          nan -0.052772727          nan    150.30589   -13034.928   -24964.142
   13600        0.136    294.35019    7.6506164   0.03122526  0.016618964          nan -0.052684963          nan    152.15294   -13033.454   -25661.535
   13700        0.137    296.81931    7.7330051 -0.0013165403 0.0083366643          nan -0.052701542          nan    153.42926   -13031.354   -25800.084
   13800        0.138    291.25069    7.7123916  0.021712303 -0.0064641626          nan -0.052596015          nan    150.55078   -13025.096   -25758.799
   13900        0.139    292.21313    7.7793834 -0.018596694  0.033121535          nan -0.052534536          nan    151.04827   -13022.219   -25979.694
   14000         0.14    290.78192    7.7739784 -0.018391636 0.00024523942          nan -0.052527458          nan    150.30847   -13018.072   -25852.773
   14100        0.141    290.98435    7.8449078 0.0028284285 -0.032554213          nan -0.052493041          nan    150.41311   -13014.743   -26050.607
   14200        0.142    294.12159    7.8437331  -0.02390802 -0.0041379011          nan -0.052423416          nan    152.03478   -13012.916   -26052.291
   14300        0.143    293.71432    7.8738105  0.019746234  0.023631537          nan -0.052329261          nan    151.82426   -13009.286   -26390.628
   14400        0.144     294.6357    7.8741604 -0.046018615 0.00047032948          nan -0.052325403          nan    152.30053   -13006.298   -26095.374
   14500        0.145     290.8319    7.8916896  0.021238627 -0.0060794099          nan -0.052206377          nan     150.3343   -13000.867   -26356.163
   14600        0.146    291.05198    7.8755564 0.0084610282 -0.023920782          nan  -0.05214893          nan    150.44807    -12997.51   -26200.322
   14700        0.147    289.85403    7.8562697  0.029594156 -0.0032762703          nan  -0.05206512          nan    149.82883   -12993.412   -26275.292
   14800        0.148    295.22257    7.7739472  0.010271893 -0.036002251          nan -0.052081401          nan    152.60389   -12992.754    -25827.39
   14900        0.149    295.96817    7.5426105  0.010334563   0.05186927          nan  -0.05198679          nan     152.9893   -12989.735   -25349.381
   15000         0.15    304.02056    7.2650055 -0.071123596  0.034185168          nan -0.052016999          nan    157.15167   -12990.627   -24093.557
   15100        0.151    306.69809     6.911152 -0.068385816   0.01273007          nan -0.051870535          nan    158.53572   -12988.961   -22851.654
   15200        0.152    319.28619    6.4117552  0.048372635 0.0019629842          nan  -0.05172031          nan    165.04264   -12992.724   -21540.303
   15300        0.153    337.88645    5.7313163 -0.0086257228 -0.056823532          nan -0.051765994          nan    174.65733   -13000.039   -18886.224
   15400        0.154     342.0304    5.0719578  0.057930295  0.068710984          nan -0.051674298          nan    176.79939   -13000.538   -17328.664
   15500        0.155    347.72231    4.3780797 -0.065055253 -0.0039264244          nan -0.051861725          nan     179.7416   -13002.419    -14363.66
   15600        0.156    352.91346    4.0470676 -0.00032413902   0.11750658          nan -0.051781433          nan    182.42496   -13004.544   -13880.834
   15700        0.157    353.64653    3.7956129  0.017236398 -0.020414122          nan -0.051836612          nan     182.8039   -13004.714   -12641.451
   15800        0.158    360.52666    3.6251051   0.01936415 -0.059177906          nan -0.051973588          nan    186.36031   -13008.159   -11950.971
   15900        0.159    362.85533    3.5756819 -0.044065223  0.017372756          nan -0.051973665          nan    187.56403   -13009.253   -11829.965
   16000         0.16    359.91317    3.4550027  0.011224552  0.079797756          nan -0.051905739          nan    186.04319   -13007.653   -11820.083
   16100        0.161    364.10444    3.3476955 -0.043325111 -0.037770807          nan -0.052047845          nan    188.20971   -13009.804   -10888.665
   16200        0.162    368.50231    3.3067163  0.061524771 -0.056567645          nan -0.051985706          nan    190.48302   -13012.162   -11038.911
   16300        0.163    363.11155    3.2374907  0.042433084  0.043106488          nan -0.051942458          nan    187.69647   -13009.558   -11076.768
   16400        0.164    368.58005    3.1163309 -0.054304993  -0.06283763          nan  -0.05210531          nan     190.5232   -13012.631   -9997.2944
   16500        0.165    363.92767    3.0526071   0.04346032  0.049082515          nan -0.051988819          nan    188.11833   -13010.527   -10483.833
   16600        0.166    371.62968    2.9128993 -0.031234485 -0.049523321          nan -0.052147112          nan    192.09959   -13014.888   -9440.4717
   16700        0.167    375.99725    2.7648834 0.0035489738  0.063080841          nan -0.052131461          nan    194.35723   -13017.633   -9438.3774
   16800        0.168    374.14634    2.5423812 -0.004835991 -0.015992686          nan -0.052196013          nan    193.40048   -13017.298    -8405.175
   16900        0.169    377.06017    2.3996955  0.025391186 -0.063563393          nan -0.052275928          nan    194.90667    -13019.55   -7871.7444
   17000         0.17    379.69442    2.2146934  0.060914119 0.0058934643          nan -0.052355378          nan    196.26834   -13021.827   -7605.0034
   17100        0.171    382.15449    1.9527077 -0.078602414 -0.0060991189          nan -0.052573334          nan    197.53998   -13024.114   -6226.6871
   17200        0.172    392.76807    1.8357501 -0.0016333964  0.068984594          nan -0.052542386          nan    203.02626   -13030.769    -6343.671
   17300        0.173    387.15937    1.5332674 -0.020325244 -0.0051990511          nan -0.052669329          nan    200.12706   -13029.259   -5025.8105
   17400        0.174    390.57938    1.5910174 -0.0060414409  0.025585585          nan -0.052624039          nan     201.8949   -13032.353   -5368.5386
   17500        0.175    391.28815    1.4632812  0.087926805 0.0058239707          nan -0.052633252          nan    202.26127   -13034.099   -5190.1067
   17600        0.176    395.75652    1.4574467 0.0016722445  -0.12201378          nan -0.052881909          nan    204.57102   -13037.887   -4457.0171
   17700        0.177    398.90382    1.6160879  0.095692735  0.055333214          nan -0.052723169          nan     206.1979   -13041.051   -5890.3797
   17800        0.178    406.51766    1.3685035  -0.06015576  0.045226521          nan -0.053011477          nan    210.13358   -13046.554   -4511.9142
   17900        0.179    403.86429     1.362311 -0.033662106  0.028568733          nan -0.053024859          nan    208.76202   -13046.859   -4524.0589
   18000         0.18    407.81479    1.3546732   0.13564015  0.061893527          nan -0.052973281          nan    210.80408   -13050.677   -5174.0228
   18100        0.181    409.64188    1.1754713 -0.057073209  -0.20378237          nan -0.053347039          nan    211.74852   -13053.432   -3048.7192
   18200        0.182    405.70759    1.2827927   0.11026115  0.084096093          nan -0.053024197          nan    209.71484   -13053.351   -4923.8331
   18300        0.183    411.14037    1.1682992   -0.1015738 -0.025194645          nan -0.053291291          nan    212.52311   -13058.092   -3471.7692
   18400        0.184    413.40339    1.1873292  0.031672072  0.061322204          nan -0.053215907          nan    213.69289   -13061.185    -4267.745
   18500        0.185     411.4069    1.0979031  0.067985641 -0.036154967          nan -0.053318305          nan    212.66088    -13062.21   -3765.7792
   18600        0.186    415.78492   0.95073773 -0.074940763 -0.031755127          nan -0.053576622          nan    214.92393   -13066.586   -2813.4728
   18700        0.187    407.15103    1.0483484  0.025364924   0.10177936          nan -0.053399429          nan    210.46097   -13064.222   -3918.3091
   18800        0.188    414.42847    0.9619183 -0.049335527  0.018947268          nan -0.053508683          nan    214.22277   -13070.102   -3105.1001
   18900        0.189    413.13697   0.95666965   0.08651165 -0.061218342          nan -0.053500264          nan    213.55518   -13071.573   -3273.2099
   19000         0.19    404.68701    1.0785285 -0.049953746 -0.010254662          nan -0.053569802          nan     209.1873   -13069.318   -3394.4004
   19100        0.191    408.74635    1.0938976 -0.044617618   0.05119539          nan -0.053571156          nan    211.28562   -13073.469   -3668.2512
   19200        0.192    424.29872    1.2267294  0.020991878 -0.00087700265          nan -0.053570234          nan    219.32481   -13083.591   -4156.1477
   19300        0.193    416.40341    1.3043736   0.12121524 -0.057169341          nan -0.053526559          nan    215.24364   -13081.596   -4561.3984
   19400        0.194    416.73492     1.305128  0.022209319  0.052278979          nan -0.053568276          nan      215.415   -13083.883   -4598.7209
   19500        0.195    409.75983    1.1540679 -0.038616738  0.067029986          nan -0.053672902          nan    211.80949   -13082.239   -3941.6039
   19600        0.196    410.44065    1.2025847 -0.046174651 -0.028864944          nan -0.053700994          nan    212.16142   -13084.609   -3758.4838
   19700        0.197    411.18681     1.194101  0.066357446  0.078022778          nan -0.053615266          nan    212.54712   -13087.005    -4461.604
   19800        0.198    404.05349    1.0724971  -0.11986189  -0.12866493          nan -0.053868556          nan    208.85982   -13085.358   -2746.5677
   19900        0.199    412.73965    1.2414044   0.13286855   0.08738096          nan -0.053569668          nan     213.3498   -13091.886   -4872.1798
   20000          0.2    410.43872    1.1150869 -0.084432827 -0.058750672          nan -0.053904989          nan    212.16042    -13092.73   -3239.6782
Loop time of 1148.8 on 4 procs for 20000 steps with 4000 atoms

Pair  time (%) = 1065.96 (92.7893)
Neigh time (%) = 0.464603 (0.0404425)
Comm  time (%) = 53.7486 (4.67868)
Outpt time (%) = 0.332542 (0.0289469)
Other time (%) = 28.2902 (2.46259)

######################################
# SIMULATION DONE
print "All done"
All done
