# ----------------------- ATOM DEFINITION ----------------------------
lattice		fcc 4.05
Lattice spacing in x,y,z = 4.05 4.05 4.05
region		whole block 0 10 0 10 0 10
create_box	1 whole
Created orthogonal box = (0 0 0) to (40.5 40.5 40.5)
lattice 	fcc 4.05 orient x 1 0 0 orient y 0 1 0 orient z 0 0 1
Lattice spacing in x,y,z = 4.05 4.05 4.05
create_atoms	1 region whole
Created 4000 atoms

# ------------------------ FORCE FIELDS ------------------------------

#****************USE THIS TO TEST******************
pair_style	eam/rad
pair_coeff 		* * Al99.PC0.05.eam.alloy.rad.txt Al # pc = 0.5   error generating

# to test with error = 0 use this potential
# pair_coeff	* * Al99.eam.alloy.005pcrad_NULL_noerror Al

#****************USE THIS TO RUN REFRENCE***********
# pair_style	eam/alloy
# pair_coeff	* * Al99.eam.alloy Al

# ------------------------- SETTINGS ---------------------------------
compute csym all centro/atom fcc
compute peratom all pe/atom

######################################
# EQUILIBRATION
reset_timestep	0
timestep	0.001 # default
# timestep	0.0001 # tiny time step
velocity all create 300 12345 mom yes rot no
fix 1 all npt temp 300 300 1 iso 0 0 1 drag 1

# Set thermo output
thermo 50
# thermo 1 # debug mode

# thermo_style custom step lx ly lz press pxx pyy pzz pe temp
# IMPLEMENTATION HERE

# VERSION add rad variables .v1 .v2
# thermo_style custom step lx ly lz press pxx pyy pzz pxxrad pyyrad pzzrad pe temp

# VERSION ublb separation .v3
thermo_style custom step lx ly lz press pxx pxxrad pyy pyyrad pzz pzzrad pe temp

# Run for at least 10 picosecond (assuming 1 fs timestep)
run 	20000 # default
Step Lx Ly Lz Press Pxx Pxxrad Pyy Pyyrad Pzz Pzzrad PotEng Temp
0         40.5         40.5         40.5    2496.1233    2446.9902    242.99145    2534.6541    242.99145    2506.7256     485.9829       -13440          300
Averages over the last 201 of 401 rows, steps 10000 to 20000:
Lx Ly Lz Press Pxx Pxxrad Pyy Pyyrad Pzz Pzzrad PotEng Temp
40.6409 40.6409 40.6409 -0.413478 -9.04404 23113.5 -12.8334 23206.2 20.637 483.06 -13293.4 284.383
Loop time of 896.145 on 4 procs for 20000 steps with 4000 atoms

Pair  time (%) = 830.546 (92.6798)
Neigh time (%) = 0 (0)
Comm  time (%) = 46.3711 (5.1745)
Outpt time (%) = 0.264552 (0.0295211)
Other time (%) = 18.964 (2.11617)

# run 	200000

# Use this if debug
# run 	1000
# run 200
unfix 1

# Store final cell length for strain calculations
variable tmp equal "lx"
variable L0 equal 40.6483922577475
Initial Length, L0: 40.6483922577475

######################################
# DEFORMATION
reset_timestep	0
set atom * xrad 0 yrad 0 zrad 0 vxrad 0 vyrad 0 vzrad 0
  4000 settings made for xrad
  4000 settings made for yrad
  4000 settings made for zrad
  4000 settings made for vxrad
  4000 settings made for vyrad
  4000 settings made for vzrad
fix		1 all npt temp 300 300 1 y 0 0 1 z 0 0 1 drag 1

variable srate equal 1.0e10
# variable srate equal 1.0e9 # tiny time step

variable srate1 equal "v_srate / 1.0e12"
fix		2 all deform 1 x erate 0.01 units box remap x

# Output strain and stress info to file
# for units metal, pressure is in [bars] = 100 [kPa] = 1/10000 [GPa]
# p2, p3, p4 are in GPa
variable strain equal "(lx - v_L0)/v_L0"
variable p1 equal "v_strain"
variable p2 equal "-pxx/10000"
variable p3 equal "-pyy/10000"
variable p4 equal "-pzz/10000"

# IMPLEMENTATION HERE
variable p5 equal "-pxxrad/10000"

# VERSION add rad variables
variable p6 equal "-pyyrad/10000"
variable p7 equal "-pzzrad/10000"

# VERSION ublb coupled/decoupled scheme
# variable p6 equal "-pxxub/10000"
# variable p7 equal "-pxxlb/10000"

# Use cfg for AtomEye
# dump 		1 all cfg 250 dump.tensile_*.cfg mass type xs ys zs c_csym c_peratom fx fy fz
# dump_modify 1 element Al

# print output to a text file every n timesteps
# dump		2 all custom 50 dump.xyz_rvf_rad.tensile_*.txt mass type id x y z vx vy vz fx fy fz xrad yrad zrad vxrad vyrad vzrad fxrad fyrad fzrad # use for rad developement
# dump		2 all custom 50 dump.xyz_rvf_rad.tensile_*.txt mass type id x y z vx vy vz fx fy fz xrad yrad zrad vxrad vyrad vzrad fxrad fyrad fzrad xub yub zub vxub vyub vzub fxub fyub fzub xlb ylb zlb vxlb vylb vzlb fxlb fylb fzlb # use for ublb developement

# Display thermo
thermo 	50
# thermo 1
# thermo_style	custom step v_strain temp v_p2 v_p3 v_p4 ke pe press

# IMPLEMENTATION HERE
thermo_style	custom step v_strain temp v_p2 v_p3 v_p4 v_p5 v_p6 v_p7 ke pe press
run	20000
Step strain Temp p2 p3 p4 p5 p6 p7 KinEng PotEng Press
       0            0    295.05319  -0.02368314 -0.029812899 -0.0083852874 -0.023923009 -0.023928083          nan    152.51633   -13283.071    206.27109
      50       0.0005    305.27076  0.076385928  0.026700653   0.02544381   -2.5207095   -2.4879584          nan    157.79791   -13288.296   -428.43464
     100        0.001    295.42717   0.06301276   0.02872752  0.009142002 -0.024332339 -0.024307287          nan    152.70965   -13283.145   -336.27427
     150       0.0015    303.35582   0.10391563  0.021016666 -0.016979124   -2.5211586   -2.5212472          nan    156.80806   -13287.176    -359.8439
     200        0.002    301.05276   0.11977248 -0.063221078 0.0076251495 -0.024323715 -0.024358918          nan    155.61758   -13285.908   -213.92183
     250       0.0025    295.64903   0.15045177 -0.011141413 -0.017034305   -2.4632125   -2.4450359          nan    152.82433   -13283.033   -407.58686
     300        0.003    297.59578   0.20177241  0.017257887  0.043740917 -0.024270365 -0.024304419          nan    153.83063   -13283.947   -875.90403
     350       0.0035    297.90159   0.21457242  0.016962525  0.013201642   -2.4105358   -2.3986294          nan     153.9887   -13284.012   -815.78861
     400        0.004     302.2837   0.23780181 -0.012340809 -0.030440108 -0.024286885 -0.024316947          nan    156.25386   -13286.167   -650.06963
     450       0.0045    301.24938   0.28630656 0.0061301808 -0.035861067   -2.4338928   -2.4352413          nan    155.71922   -13285.519   -855.25223
     500        0.005    296.61352   0.31253741 0.0079158149  0.014220882 -0.024263349 -0.024281649          nan    153.32289   -13283.004   -1115.5803
     550       0.0055    304.12293   0.37536467  0.015063377  0.046358205   -2.4446316   -2.5244566          nan    157.20458   -13286.755   -1455.9542
     600        0.006    295.36034   0.37703246 -0.0086069583 -0.0076705015 -0.024233606 -0.024273607          nan     152.6751   -13282.091   -1202.5167
     650       0.0065    302.92334   0.41996667 -0.011519301 -0.00041694971   -2.4508768   -2.4762034          nan     156.5845   -13285.854   -1360.1014
     700        0.007    298.20205   0.43576674 -0.025363065 -0.014081269 -0.024221048 -0.024269572          nan    154.14402   -13283.265   -1321.0747
     750       0.0075    295.82411   0.48498769  0.015544159  0.011999991   -2.4712821   -2.3651851          nan    152.91483   -13281.879   -1708.4395
     800        0.008    302.13311   0.52029438  0.027130983  0.018111419 -0.024191124 -0.024247056          nan    156.17602   -13284.977   -1885.1226
     850       0.0085    301.09945   0.55422916  0.003843732 -0.016729839    -2.417817   -2.5075791          nan    155.64172    -13284.27   -1804.4768
     900        0.009    300.31698   0.57208332 0.0015430849 -0.0065144422 -0.024185933  -0.02425659          nan    155.23725   -13283.688   -1890.3732
     950       0.0095    301.07859    0.6263659 0.0012301972 -0.0057598621   -2.4471934   -2.4942785          nan    155.63093   -13283.895   -2072.7874
    1000         0.01    301.50988   0.65335757 0.0023734946  0.040408462 -0.024139959 -0.024234291          nan    155.85387   -13283.925   -2320.4651
    1050       0.0105    297.02491   0.66836506 0.0044850551 -0.0080675322   -2.4519809   -2.4553869          nan    153.53554   -13281.404    -2215.942
    1100        0.011    299.92421   0.69534003    0.0050105 0.0089962338 -0.024152159 -0.024230169          nan    155.03422   -13282.701   -2364.4892
    1150       0.0115    300.93967   0.72842287 -0.0066764886 -0.023511094   -2.4039471   -2.4351656          nan    155.55912   -13283.011    -2327.451
    1200        0.012    298.11516   0.74283245 0.0023225495 -0.0056781198 -0.024139702 -0.024212943          nan     154.0991   -13281.331   -2464.9229
    1250       0.0125    296.09534   0.80074317 -0.00015762297  0.016038089   -2.4601133   -2.3147702          nan    153.05503    -13280.06   -2722.0788
    1300        0.013    300.38579   0.81874177 -0.0076835348  0.011580456 -0.024121612 -0.024204432          nan    155.27282   -13282.048    -2742.129
    1350       0.0135    294.35458   0.84512009 -0.031162971 -0.024399982   -2.3404322   -2.4299436          nan    152.15522   -13278.691   -2631.8571
    1400        0.014    298.92375   0.91345678 0.0073932019  -0.01098955  -0.02409869 -0.024182826          nan    154.51707   -13280.801   -3032.8681
    1450       0.0145    299.86146   0.92245658  0.044193515  0.026805922   -2.3935764   -2.4174193          nan    155.00178   -13281.031     -3311.52
    1500        0.015    297.04973   0.96477228 -0.0038140823 0.0042775993 -0.024079156 -0.024181481          nan    153.54837   -13279.319   -3217.4527
    1550       0.0155    301.32705   0.97107154 -0.017055583 -0.023224235   -2.4938935   -2.4170724          nan    155.75936   -13281.256   -3102.6391
    1600        0.016    300.47997    1.0189589 -0.0051068267 -0.018145599 -0.024083715 -0.024165081          nan     155.3215   -13280.543   -3319.0216
    1650       0.0165    298.70423    1.0694414  0.016005424  0.029115908   -2.3716066   -2.3962225          nan     154.4036    -13279.34    -3715.209
    1700        0.017     299.1915    1.1279416  0.018829441  0.025145113 -0.024033582 -0.024132203          nan    154.65547   -13279.296   -3906.3871
    1750       0.0175    302.96186    1.1236282 0.0049706753 -0.0038490882   -2.4704559   -2.4460185          nan    156.60442   -13280.943   -3749.1659
    1800        0.018    297.54899    1.1340796 -0.038355047 -0.0038681782 -0.024045241 -0.024152038          nan    153.80644   -13277.838   -3639.5214
    1850       0.0185    300.18284     1.202559  0.024060562 -0.025380846   -2.4588378    -2.458787          nan    155.16791   -13278.883   -4004.1291
    1900        0.019      301.905    1.2428105  0.013249417  0.042858646 -0.024012818 -0.024116113          nan    156.05811   -13279.452   -4329.7287
    1950       0.0195    297.56463    1.2595106  0.020898741 0.0060602864   -2.4630188    -2.344724          nan    153.81452   -13276.881   -4288.2322
    2000         0.02    301.39312     1.287643 -0.020410125 0.0014033429 -0.024024198 -0.024121825          nan    155.79352   -13278.523   -4228.7873
    2050       0.0205    297.39065    1.3212022  -0.02259175 -0.028835303    -2.413283   -2.3856226          nan     153.7246   -13276.109   -4232.5839
    2100        0.021    296.57933    1.3530512  0.024545494   0.01259576 -0.023985161 -0.024073902          nan    153.30522    -13275.34    -4633.975
    2150       0.0215    301.86389      1.42285  0.014651572  0.018754474   -2.5185759   -2.5024025          nan    156.03686   -13277.716    -4854.187
    2200        0.022     300.8428     1.412048 0.0012920287 -0.0021998856 -0.023987873 -0.024104948          nan    155.50905   -13276.825   -4703.8004
    2250       0.0225    299.02725    1.4321461 -0.0040392456  -0.02995493   -2.4573115   -2.4291628          nan    154.57057   -13275.515   -4660.5065
    2300        0.023    297.44991    1.4709187 0.0051088264 -0.0080936701 -0.023971946 -0.024060576          nan    153.75522   -13274.321   -4893.1129
    2350       0.0235    299.76275    1.5253658  0.011264959  0.029684555   -2.5061618   -2.4260627          nan    154.95076   -13275.137   -5221.0509
    2400        0.024    297.54615     1.539138 -0.0043798112  0.014949503 -0.023954775 -0.024051413          nan    153.80497   -13273.602   -5165.6921
    2450       0.0245    299.17032    1.5501475 -0.023600856 -0.029707099   -2.4560497   -2.4183001          nan    154.64453   -13274.046    -4989.465
    2500        0.025    297.21842    1.5902559  -0.03311447 0.0058390706 -0.023940527 -0.024064909          nan    153.63556    -13272.64   -5209.9351
    2550       0.0255    301.31341    1.6512509  0.029887397  0.021011691   -2.4801843   -2.4615339          nan    155.75231   -13274.349   -5673.8333
    2600        0.026    296.45283    1.6611498 -0.012557481  0.027613457 -0.023920284 -0.024031287          nan    153.23982   -13271.422   -5587.3527
    2650       0.0265    301.29272    1.6973705  0.028162696 -0.018934186   -2.4915226   -2.4478888          nan    155.74162   -13273.502   -5688.6633
    2700        0.027    299.01917     1.704902 -0.037149708 -0.012826785 -0.023932044 -0.024049884          nan    154.56639   -13271.892   -5516.4185
    2750       0.0275    294.81053    1.7458347  0.026329128 -0.033596017   -2.3892678   -2.3781598          nan     152.3909   -13269.282   -5795.2259
    2800        0.028    307.06192    1.8364285  0.012779723  0.029960898 -0.023883077  -0.02402376          nan    158.72378   -13275.167   -6263.8972
    2850       0.0285     294.3924    1.8029528  0.036267881 -0.0075944043   -2.4050633   -2.3563934          nan    152.17476   -13268.171   -6105.4209
    2900        0.029    298.82632    1.8278992 -0.034723123  0.023443073 -0.023913432 -0.024011137          nan    154.46671   -13270.005   -6055.3973
    2950       0.0295      295.566    1.8545584 -0.026736901 -0.049688918   -2.4487402   -2.3870857          nan    152.78141   -13267.857   -5927.1085
    3000         0.03    297.08106     1.903764 -0.032824072 -0.0045135911 -0.023882236 -0.024009823          nan    153.56456   -13268.172    -6221.421
    3050       0.0305    296.51612    1.9797658 0.0079111261  0.035459186   -2.4077472   -2.4155198          nan    153.27254   -13267.398    -6743.787
    3100        0.031    296.18725    1.9856293  0.045357593  0.027168871 -0.023847704 -0.023971232          nan    153.10254   -13266.743   -6860.5192
    3150       0.0315    305.23717    1.9950752 -0.030633714 0.0012006404   -2.4876944   -2.4300881          nan    157.78055   -13270.935   -6552.1403
    3200        0.032    295.69797    2.0031751 -0.018824519 -0.066757497  -0.02386795 -0.023997126          nan    152.84963   -13265.506   -6391.9768
    3250       0.0325    300.14851    2.0592877  0.025645712 0.0078527845    -2.445042   -2.4661065          nan    155.15016   -13267.304   -6975.9538
    3300        0.033    296.99658    2.1116954  0.034580846    0.0282224 -0.023811194 -0.023943839          nan    153.52089   -13265.162   -7248.3287
    3350       0.0335     300.9741    2.1355972  -0.00194848   0.02416816   -2.4052696   -2.3996025          nan    155.57692   -13266.702   -7192.7229
    3400        0.034     297.6866    2.1059411 -0.041805527 -0.046066095 -0.023862648 -0.023992669          nan    153.87757    -13264.48   -6726.8982
    3450       0.0345    305.14294    2.2052616 -0.011940045 0.0022416296   -2.4304609   -2.5422863          nan    157.73184   -13267.806   -7318.5441
    3500        0.035    295.38726     2.223179  0.016391681   0.03626556  -0.02378765  -0.02392705          nan    152.68902   -13262.223   -7586.1207
    3550       0.0355    295.53308    2.2537383  0.041900871  0.017738718   -2.4344834   -2.3656124          nan     152.7644   -13261.752   -7711.2595
    3600        0.036     298.1314    2.2553092 -0.011210393 -0.017247276 -0.023817296 -0.023942052          nan    154.10749   -13262.551   -7422.8383
    3650       0.0365    299.82169    2.2443079 -0.026787324 -0.039316009   -2.4178633   -2.3616482          nan    154.98122   -13262.866    -7260.682
    3700        0.037    293.53766    2.2946792 -0.032415349 -0.021033441 -0.023813409 -0.023929149          nan    151.73294   -13259.067   -7470.7681
    3750       0.0375    304.54477    2.3932302  0.043720903  0.040664473   -2.4642305   -2.4932878          nan    157.42264   -13264.189   -8258.7187
    3800        0.038    297.10803    2.4218171  0.029756495  0.023019365 -0.023755053 -0.023902626          nan     153.5785   -13259.769   -8248.6431
    3850       0.0385    298.24456    2.3861613 -0.006913458 -0.0015322537   -2.4298439   -2.3606401          nan    154.16599   -13259.786   -7925.7187
    3900        0.039    302.84281    2.4471813 -0.017592294 -0.041187509 -0.023787313 -0.023920502          nan    156.54288   -13261.573   -7961.3383
    3950       0.0395    301.19288     2.471888 0.0021618945  0.011346936   -2.4345795   -2.4568056          nan    155.69001    -13260.13    -8284.656
    4000         0.04    298.66148    2.5445055  0.033778704  0.037010058 -0.023733211 -0.023876377          nan     154.3815   -13258.223   -8717.6477
    4050       0.0405    297.97772    2.5277443  0.013332919  0.024530863   -2.4108188   -2.3553634          nan    154.02806   -13257.265   -8552.0271
    4100        0.041     302.9923    2.5885304 -0.024936895 -0.024123607 -0.023757137 -0.023907396          nan    156.62015   -13259.242   -8464.8997
    4150       0.0415    296.99519    2.5535912 -0.017797498 -0.017132526   -2.4312597   -2.4398078          nan    153.52017   -13255.525   -8395.5373
    4200        0.042    295.23504    2.6238895  0.028754394 -0.016571959 -0.023734363 -0.023856376          nan    152.61033   -13253.997   -8786.9064
    4250       0.0425    302.11298    2.6842481 0.0047643994  0.050599111   -2.4548624   -2.4266798          nan    156.16562   -13256.917   -9132.0387
    4300        0.043    292.17189    2.6621029 -0.015119507 -0.015965121 -0.023723948 -0.023849643          nan    151.02696   -13251.148   -8770.0609
    4350       0.0435    301.60128    2.7150595 -0.013027187 -0.014672073   -2.4346868   -2.4104378          nan    155.90112   -13255.379   -8957.8675
    4400        0.044    297.74582     2.746018 -0.027389178  0.012197353 -0.023707585  -0.02387251          nan    153.90818   -13252.736    -9102.754
    4450       0.0445     299.6204    2.8079968  0.027318502 -0.0039871917   -2.4118325   -2.4276738          nan    154.87718   -13253.053   -9437.7603
    4500        0.045    297.25924    2.8030405 0.0045777665  0.022483889  -0.02367815 -0.023833376          nan    153.65667   -13251.169   -9433.6738
    4550       0.0455    301.51407    2.8767196 -0.017022271  0.011794475   -2.3972715   -2.3703272          nan    155.85604   -13252.696   -9571.6395
    4600        0.046    301.74444    2.8724511  0.051709911 -0.012316009 -0.023708699  -0.02379897          nan    155.97512   -13252.132   -9706.1501
    4650       0.0465    297.56196     2.893493 -0.033975508 -0.0070609477   -2.3517461   -2.4448134          nan    153.81315   -13249.291   -9508.1884
    4700        0.047    294.13308    2.9169228 0.0035917204 -0.016751448 -0.023666721 -0.023799492          nan    152.04072   -13246.829   -9679.2102
    4750       0.0475    298.42928    2.9773057 0.0060356317   0.01925135   -2.4243038   -2.4038676          nan    154.26147   -13248.352   -10008.642
    4800        0.048    298.80154    2.9959196  0.023732365 -0.010879241 -0.023646505  -0.02379304          nan     154.4539   -13247.847   -10029.242
    4850       0.0485    303.41324    3.0075982 -0.0061712832 -0.00089613758   -2.4729853   -2.3867572          nan    156.83774   -13249.529   -10001.769
    4900        0.049     299.3143    3.0417348  -0.00253436 -0.024125699 -0.023645734 -0.023798827          nan    154.71895     -13246.7   -10050.249
    4950       0.0495    294.04119    3.0613838  0.010504683 0.0046723634   -2.4325665   -2.3770096          nan    151.99322   -13243.265   -10255.203
    5000         0.05    301.19171    3.1276593  0.022999585  0.055372935 -0.023615355 -0.023760367          nan     155.6894   -13246.234   -10686.773
    5050       0.0505    295.91312    3.1357774 -0.015370639 -0.017314394   -2.4054554   -2.3659529          nan    152.96084   -13242.779   -10343.641
    5100        0.051    297.45326    3.1539132 -0.046322016 -0.021357721 -0.023623228 -0.023792974          nan    153.75696   -13242.832   -10287.445
    5150       0.0515     295.7443    3.2072085 -0.033164799 0.0018664753   -2.3400534   -2.3210988          nan    152.87358   -13241.205   -10586.367
    5200        0.052     296.9309    3.2386035  0.015271508  0.030084288 -0.023577793 -0.023736799          nan    153.48694   -13241.069   -10946.531
    5250       0.0525    295.50977    3.2522843  0.017965414  0.012543572   -2.3830057   -2.4222319          nan    152.75235   -13239.588   -10942.644
    5300        0.053     299.0554    3.2934108 -0.012045692 -0.015707021 -0.023599693 -0.023750833          nan    154.58512   -13240.659   -10885.527
    5350       0.0535     299.2832    3.3094777 -0.0038038389 -0.045896569   -2.4071983   -2.3651815          nan    154.70288   -13240.006   -10865.924
    5400        0.054    297.35019    3.3424285  0.023086269 -0.013865812 -0.023580173 -0.023719387          nan    153.70368   -13238.234   -11172.163
    5450       0.0545    298.78331    3.3878316  0.052570017  0.015137087   -2.3870943   -2.3765705          nan    154.44447   -13238.204   -11518.462
    5500        0.055    295.07703    3.3868832 -0.0067934096 -0.020396087 -0.023564573 -0.023727359          nan    152.52866   -13235.514   -11198.979
    5550       0.0555    296.79754    3.4000931 -0.037028038 -0.020119574   -2.3760994   -2.3871578          nan    153.41801   -13235.615   -11143.152
    5600        0.056    301.39711    3.4653804 0.0050087383  0.030795595 -0.023544436 -0.023736254          nan    155.79558   -13237.193   -11670.616
    5650       0.0565    295.10996     3.491335 -0.0064952873  0.019791512   -2.4008892   -2.4264656          nan    152.54568   -13233.142   -11682.104
    5700        0.057    302.33822    3.5320459 -0.017306053  0.045758238 -0.023522493 -0.023725632          nan    156.28205   -13236.066   -11868.327
    5750       0.0575    301.11689    3.5515934   0.01056928 0.0028727941    -2.481882   -2.3541986          nan    155.65073   -13234.627   -11883.452
    5800        0.058    298.87619     3.591932 -0.019896206 -0.024690391 -0.023518134 -0.023720368          nan    154.49249   -13232.644   -11824.485
    5850       0.0585    299.44899    3.6082841 0.0004748079  0.021221611   -2.4156898   -2.3982699          nan    154.78857   -13232.114   -12099.935
    5900        0.059    296.27359    3.6642386  0.046351765 -0.0065678213 -0.023488952 -0.023666008          nan    153.14717    -13229.64   -12346.742
    5950       0.0595    294.10251    3.6656502 -0.0064134516 -0.025371359   -2.3193558   -2.3925285          nan    152.02492   -13227.675   -12112.885
    6000         0.06    293.90218    3.6869601 -0.0017507995  -0.04876057 -0.023479974 -0.023672416          nan    151.92136   -13226.729   -12121.496
    6050       0.0605    295.60619    3.7556568  0.020033197 -0.021706878   -2.3018692   -2.3735355          nan    152.80219   -13226.759   -12513.277
    6100        0.061    296.81875    3.7567425  0.016832321  0.029340039 -0.023464379 -0.023660434          nan    153.42897   -13226.535   -12676.383
    6150       0.0615    300.85331     3.776203   -0.0267741  0.028058624   -2.4481555    -2.354308          nan    155.51448   -13227.754   -12591.625
    6200        0.062    297.62806    3.7838742 -0.0063994282 -0.035517066 -0.023477271 -0.023663189          nan    153.84731    -13225.22   -12473.192
    6250       0.0625    299.09081    3.8577525 -0.046720242   0.04491885   -2.3413722   -2.4240692          nan    154.60343   -13225.105    -12853.17
    6300        0.063    297.01891    3.8793894  0.018329749 0.0075551163 -0.023433131  -0.02363108          nan    153.53244   -13223.153   -13017.581
    6350       0.0635    297.51843    3.9156791  0.032127764  0.018982227    -2.410375   -2.3580598          nan    153.79065   -13222.521    -13222.63
    6400        0.064     300.0686    3.9586014 -0.0013725591 -0.016584533 -0.023438865 -0.023636528          nan    155.10886   -13222.943   -13135.481
    6450       0.0645    298.98999    3.9488134 -0.019015711 -0.031036943    -2.403764   -2.4389081          nan    154.55131   -13221.485   -12995.869
    6500        0.065    295.19391    3.9941886 0.0059989835 -0.040263996  -0.02342263 -0.023610584          nan    152.58907   -13218.621   -13199.745
    6550       0.0655    301.09898    4.0687854  0.017064476  0.031499443   -2.4224588   -2.3766811          nan    155.64147   -13220.759   -13724.498
    6600        0.066    299.49308    4.0866957  0.048690053  0.032767488 -0.023380535 -0.023599952          nan    154.81136   -13219.011   -13893.844
    6650       0.0665    296.30754    4.0446828 -0.028069799 0.0080488296   -2.3680119   -2.3564703          nan    153.16472   -13216.446    -13415.54
    6700        0.067     296.5412     4.065192 -0.063238046 -0.020974964 -0.023416493 -0.023626849          nan     153.2855   -13215.643    -13269.93
    6750       0.0675    299.62322     4.148748 0.00097620029  0.009074635   -2.3873046   -2.3442761          nan    154.87864   -13216.308   -13862.663
    6800        0.068    300.76649    4.2125262  0.022616033  0.039164622 -0.023358424 -0.023556777          nan     155.4696   -13215.952   -14247.689
    6850       0.0685    297.19101    4.1881577  0.040235042 0.0050452335   -2.3970017   -2.3651093          nan     153.6214   -13213.161    -14111.46
    6900        0.069    293.70756    4.1907655 -0.026125956 -0.042331676 -0.023372555 -0.023585581          nan    151.82076   -13210.412   -13741.026
    6950       0.0695    296.83448    4.2553369 -0.022821403 -0.046623065   -2.3952204   -2.2915637          nan    153.43711   -13211.066   -13952.975
    7000         0.07    293.12083     4.295548   0.00484267 -0.018741935 -0.023314125 -0.023532295          nan    151.51747   -13208.187   -14272.162
    7050       0.0705    299.38225    4.3539465  0.064458816   0.06586315   -2.3670897   -2.3717282          nan    154.75407   -13210.448   -14947.562
    7100        0.071    297.85468    4.3449056 0.0095985868 -0.0097755489 -0.023326511 -0.023530669          nan    153.96446   -13208.696   -14482.429
    7150       0.0715     303.8638    4.3509306 -0.053497584 -0.017918449   -2.4724953   -2.4367029          nan    157.07064   -13210.815   -14265.048
    7200        0.072    295.98076    4.3983491 -0.031275506 -0.043523316 -0.023320223 -0.023560041          nan    152.99581    -13205.76   -14411.834
    7250       0.0725    297.89557    4.4537102  0.018672295  0.057821183   -2.3396458   -2.3786782          nan    153.98559   -13205.753   -15100.679
    7300        0.073    301.10811    4.5039814   0.06372501  0.041003865 -0.023269122 -0.023493216          nan    155.64619    -13206.42   -15362.367
    7350       0.0735    299.85611    4.4591378 -0.022374935  0.011252791   -2.4065462   -2.3785215          nan    154.99902   -13204.777   -14826.719
    7400        0.074    301.75346    4.4805148 -0.055810604 -0.037184991 -0.023312876 -0.023566987          nan    155.97978   -13204.754   -14625.064
    7450       0.0745    293.86488    4.5391231  -0.01962499  -0.02934878   -2.3488545   -2.3141535          nan    151.90208   -13199.673   -14967.164
    7500        0.075    297.72557     4.609548  0.061511101  0.045419079 -0.023231535 -0.023464193          nan    153.89772   -13200.642   -15721.594
    7550       0.0755    294.81197    4.5856025  0.035894362  0.026284155   -2.3710779   -2.4038048          nan    152.39165   -13198.123   -15492.603
    7600        0.076    299.26835    4.5825482 -0.035549121 -0.023023699 -0.023287177 -0.023510765          nan     154.6952   -13199.404   -15079.918
    7650       0.0765    300.56299    4.6266498 -0.036358873 -0.054277528   -2.4033457   -2.4414205          nan    155.36441   -13199.036   -15120.045
    7700        0.077    293.38467     4.690091  0.020642148 0.0045046244  -0.02322138 -0.023469635          nan    151.65386    -13194.29   -15717.459
    7750       0.0775    299.87955    4.7328839   0.05065798  0.038671721   -2.3767158   -2.3759055          nan    155.01113   -13196.601   -16074.045
    7800        0.078    298.85473    4.7378086 -0.003919178  0.033909117 -0.023217951  -0.02348891          nan    154.48139   -13195.025   -15892.662
    7850       0.0785    295.12705    4.7277529 -0.059033236 -0.057102648   -2.3715755   -2.3858704          nan    152.55451   -13192.039   -15372.057
    7900        0.079    301.68056    4.8239052  0.018820017 0.0003996034 -0.023220091 -0.023468328          nan     155.9421   -13194.362    -16143.75
    7950       0.0795    293.03364    4.8260302 0.0029928673  0.010982885   -2.3467163    -2.413467          nan     151.4724   -13188.819   -16133.353
    8000         0.08    297.51119    4.8405086   0.03297672  0.019940971 -0.023197667 -0.023429636          nan     153.7869   -13190.066   -16311.421
    8050       0.0805    299.34164    4.8436061 -0.028174289 -0.00098157978   -2.4111778   -2.4242719          nan    154.73308   -13189.936   -16048.168
    8100        0.081    296.56636    4.8506139 -0.051407067 -0.016973168 -0.023194929 -0.023460944          nan    153.29851   -13187.422   -15940.779
    8150       0.0815    297.38541    4.9434532 -0.016144964  0.029839807   -2.4101463   -2.4144541          nan    153.72188   -13186.764   -16523.827
    8200        0.082    300.24269    4.9801962  0.057729169  0.055111674 -0.023148075  -0.02339268          nan    155.19884   -13187.148    -16976.79
    8250       0.0825    295.74677    4.9761855 0.0038144273 -0.018230996   -2.3474692   -2.3548665          nan    152.87485   -13183.721    -16539.23
    8300        0.083    296.28784    4.9888579 -0.013314461 -0.072836902 -0.023152676 -0.023412213          nan    153.15454   -13182.888   -16342.355
    8350       0.0835    301.84692    5.0460235  0.012438532  0.018952911   -2.3538418   -2.3956048          nan    156.02809    -13184.65   -16924.717
    8400        0.084    301.63377     5.087587   0.04468856 0.0087819677 -0.023126814 -0.023391762          nan    155.91791   -13183.421   -17136.858
    8450       0.0845     294.4379    5.0713813  0.030857022 -0.051251245   -2.2913618   -2.3019641          nan    152.19828   -13178.588   -16836.624
    8500        0.085    294.95823    5.1054048 -0.036500546 0.0040642006 -0.023098777 -0.023395881          nan    152.46725   -13177.738   -16909.895
    8550       0.0855    299.59421     5.145155  0.013872156  0.020283314   -2.4004119    -2.378098          nan    154.86364   -13178.998   -17264.368
    8600        0.086    293.09655    5.1623223 0.0081498692 -0.0074220347 -0.023082355 -0.023367058          nan    151.50492   -13174.502   -17210.167
    8650       0.0865    298.64801    5.1895849  -0.05194524  0.016822551    -2.332858   -2.3779433          nan    154.37454   -13176.224   -17181.541
    8700        0.087    302.10535     5.260905 -0.0071423212  0.020998762  -0.02307862 -0.023370252          nan    156.16168   -13176.863   -17582.538
    8750       0.0875    302.82582    5.2617446  0.047847579   0.05461382   -2.4249692   -2.4374576          nan     156.5341   -13176.075   -17880.687
    8800        0.088    296.71453    5.2534156 -0.0074919516 -0.026456729 -0.023077511 -0.023346618          nan     153.3751   -13171.765   -17398.223
    8850       0.0885    299.53281    5.3070394 -0.010963604 -0.016542276   -2.3735595   -2.4239211          nan     154.8319   -13172.047   -17598.445
    8900        0.089     297.5505    5.3549116  0.012822587 0.0011849929 -0.023032202 -0.023331505          nan    153.80722   -13169.847   -17896.397
    8950       0.0895    297.27859    5.3721665  0.017151839  0.016023063   -2.4170705   -2.3855535          nan    153.66667   -13168.527   -18017.805
    9000         0.09    299.90818    5.4014734  0.033859091 0.0093173659 -0.023027045 -0.023306373          nan    155.02593   -13168.706   -18148.833
    9050       0.0905    298.93558    5.4223407 -0.038824449 -0.0043375622   -2.4058223   -2.3805739          nan    154.52318   -13167.007   -17930.595
    9100        0.091    293.90307    5.4294858 -0.0043172206 -0.033675289  -0.02300385 -0.023310649          nan    151.92182   -13163.212   -17971.644
    9150       0.0915    296.22094    5.4910122 0.0093248717  0.015374456   -2.4025365   -2.3452323          nan    153.11995   -13163.209   -18385.705
    9200        0.092    299.64819    5.5197664 0.0087843688  0.049321316 -0.022976758 -0.023287513          nan    154.89154   -13163.771   -18592.907
    9250       0.0925    295.67641    5.5301254 0.00050088898 -0.019589529   -2.3900549   -2.3768655          nan    152.83848   -13160.511   -18370.123
    9300        0.093    296.57934    5.5279826 0.0029019445 -0.026274498 -0.023003215 -0.023299422          nan    153.30522   -13159.759     -18348.7
    9350       0.0935    292.77811    5.5709958 -0.053120211 -0.019618969   -2.3298951   -2.3299071          nan    151.34032   -13156.574   -18327.522
    9400        0.094    296.71532    5.5990418  0.019557138  0.016629825 -0.022963353 -0.023250838          nan    153.37551   -13157.384   -18784.096
    9450       0.0945    296.66009    5.6509973  0.022452465  0.014395761   -2.3294827   -2.3866234          nan    153.34696   -13156.123   -18959.485
    9500        0.095    299.53035    5.6705357 0.0061389212 -0.0056646993 -0.022951398  -0.02326729          nan    154.83063   -13156.369   -18903.366
    9550       0.0955    299.17434    5.7077539 -0.007840524 -0.033374533    -2.308034   -2.3266096          nan     154.6466   -13154.936   -18888.463
    9600        0.096    293.60882    5.7020511 0.0034854801 0.0011863367 -0.022915569 -0.023231671          nan    151.76972   -13150.811    -19022.41
    9650       0.0965    296.67567    5.7380248  0.013016304  0.041505575   -2.3874474    -2.312827          nan    153.35501   -13151.141   -19308.489
    9700        0.097    301.96286    5.7698878 0.0024852429   0.01257853 -0.022911291  -0.02324816          nan    156.08802   -13152.613   -19283.172
    9750       0.0975    298.05251    5.7840203 -0.032961543  -0.01904069   -2.4032908    -2.383051          nan    154.06672   -13149.323   -19106.727
    9800        0.098    299.52193    5.8441253 0.0096543151 0.0063679754  -0.02289065 -0.023198328          nan    154.82627   -13148.811   -19533.825
    9850       0.0985    295.40622    5.8625812  0.026940766  0.016118551   -2.2790399   -2.3929367          nan    152.69882   -13145.401   -19685.468
    9900        0.099    295.44308    5.8711818  -0.01153101  0.027269711 -0.022858219 -0.023193203          nan    152.71787   -13144.138   -19623.068
    9950       0.0995     295.5608    5.9077567 -0.0013494789 -0.051515011   -2.4343254   -2.3701131          nan    152.77872   -13142.906   -19516.307
   10000          0.1    300.72513    5.9633603 0.0068624964 0.0081389887 -0.022857337 -0.023196068          nan    155.44822   -13144.275   -19927.873
   10050       0.1005    292.57979      5.94416 -0.026930837  0.017811467   -2.2711452   -2.3016118          nan    151.23781   -13138.764   -19783.469
   10100        0.101    297.00876    6.0026343  0.012510813 0.0036878069 -0.022833017 -0.023157769          nan    153.52719   -13139.746   -20062.776
   10150       0.1015    291.81813    6.0003924 0.0042061328 -0.013705162   -2.3419217   -2.3502423          nan    150.84409   -13135.751   -19969.645
   10200        0.102    300.12322    6.0297349  0.024842133 -0.015853109 -0.022842505 -0.023159754          nan    155.13709   -13138.727    -20129.08
   10250       0.1025    297.81456    6.0666693 -0.014541823 -0.024748096    -2.371301   -2.3488207          nan    153.94372   -13136.214   -20091.264
   10300        0.103    299.29435    6.1030296  0.019831197  0.010751677 -0.022796982 -0.023116737          nan    154.70864   -13135.651   -20445.375
   10350       0.1035    295.33145    6.0989471  0.030078218  0.023459219   -2.3965158   -2.3500942          nan    152.66017   -13132.272   -20508.282
   10400        0.104    293.07747    6.1222272 -0.011560171  0.006666539 -0.022783108 -0.023124317          nan    151.49506   -13129.771   -20391.112
   10450       0.1045    300.34789     6.191339 -0.017136703  -0.02320947   -2.3233908   -2.4283612          nan    155.25322   -13132.177   -20503.309
   10500        0.105    296.79888    6.1910305 -0.023793835 -0.027123346 -0.022775205 -0.023138222          nan     153.4187   -13128.991   -20467.044
   10550       0.1055     292.5469    6.1730262 0.00072707002  0.015396531   -2.2924144   -2.2390077          nan     151.2208   -13125.449   -20630.499
   10600        0.106    299.76657    6.2546043   0.06431193  0.029646855 -0.022719304 -0.023067446          nan    154.95273   -13127.825   -21161.877
   10650       0.1065    297.45185     6.277285   0.01138457  0.010921436   -2.3721379   -2.3040451          nan    153.75623   -13125.263   -20998.637
   10700        0.107    299.28575    6.3159878 -0.058843209 0.0088751701 -0.022761227 -0.023107384          nan    154.70419   -13124.827   -20886.733
   10750       0.1075     298.0767    6.3270774 -0.031686949 -0.025891406    -2.409516   -2.3590466          nan    154.07922   -13122.819    -20898.33
   10800        0.108    292.71521    6.3511692 0.0050384992 0.0068728816 -0.022700743 -0.023053636          nan    151.30781   -13118.674   -21210.269
   10850       0.1085    296.83076    6.4044451   0.06074091  0.060444734   -2.4169165   -2.3599927          nan    153.43518   -13119.403   -21752.103
   10900        0.109     298.8772    6.4305164 -0.00089408056  0.022392896 -0.022689391 -0.023058983          nan    154.49301   -13119.066   -21506.717
   10950       0.1095    295.12866     6.393375  -0.08414463 -0.033452319   -2.3025945   -2.3797688          nan    152.55535   -13115.719    -20919.26
   11000         0.11    299.97893    6.4676754 -0.019035911 -0.028130303 -0.022693199 -0.023042974          nan    155.06251   -13116.826   -21401.697
   11050       0.1105    289.50242    6.4626257  0.034956017  0.021953147   -2.3008826    -2.291334          nan    149.64708   -13110.002   -21731.783
   11100        0.111     299.5863    6.5498947  0.091887315  0.056198958 -0.022627179 -0.022965916          nan    154.85955    -13113.79   -22326.603
   11150       0.1115    300.30372    6.5695839  0.012700448  -0.03492997   -2.3425754   -2.4064512          nan    155.23039   -13112.738   -21824.515
   11200        0.112     296.1484    6.5058518 -0.090590539 -0.080866067 -0.022686823 -0.023036665          nan    153.08246    -13109.15   -21114.651
   11250       0.1125    290.78729     6.553471  0.013420122 -0.014746013    -2.279816   -2.3112078          nan    150.31124   -13104.969   -21840.484
   11300        0.113    297.24181    6.6636634  0.077111258  0.086382672 -0.022576158 -0.022931679          nan    153.64766   -13106.849   -22757.191
   11350       0.1135    289.87293     6.653388 -0.031679925  0.017132257   -2.2803718   -2.3280847          nan     149.8386   -13101.596   -22129.468
   11400        0.114    298.06909    6.6496498 -0.050346638  -0.04614701 -0.022614044 -0.022994615          nan    154.07529   -13104.366   -21843.854
   11450       0.1145    294.88476     6.678781 -0.031953089 -0.031800686   -2.3388633   -2.3659463          nan    152.42927   -13101.264   -22050.091
   11500        0.115    299.14704    6.7468172  0.032101357  0.064148609 -0.022544244  -0.02293807          nan    154.63249   -13101.998   -22810.224
   11550       0.1155    295.47516     6.739002  0.055725002   0.01406588   -2.3705502   -2.3546229          nan    152.73446   -13098.633   -22695.976
   11600        0.116    293.55793    6.7404774 -0.021520116 -0.039617234 -0.022541512 -0.022933362          nan    151.74342    -13096.17   -22264.467
   11650       0.1165    298.22774    6.7737658 -0.017291172 -0.029387786   -2.4109052   -2.3697919          nan    154.15729   -13097.105   -22423.623
   11700        0.117    296.00123    6.8133094 -0.020591757  0.018094833 -0.022505022 -0.022928971          nan    153.00639   -13094.472   -22702.708
   11750       0.1175     296.1151     6.872634  0.038751678  0.057192917   -2.2892287   -2.3240388          nan    153.06525   -13093.035   -23228.595
   11800        0.118    294.37801    6.8536084  0.021129618 -0.022425111 -0.022489111 -0.022888562          nan    152.16733   -13090.646   -22841.043
   11850       0.1185    294.66098    6.8435772 -0.043910959 -0.046590327   -2.3211363   -2.3159127          nan     152.3136   -13089.293   -22510.253
   11900        0.119    292.33603    6.8547663 -0.0061264443   0.01318044  -0.02248715 -0.022879487          nan     151.1118   -13086.595   -22872.734
   11950       0.1195    296.14747     6.928381  0.012201845  0.022338204   -2.2868271   -2.3751241          nan    153.08198   -13087.055   -23209.737
   12000         0.12    291.96554     6.947103 0.0022161909 0.0015750599 -0.022452198 -0.022856564          nan    150.92029   -13083.376   -23169.648
   12050       0.1205    295.37195    6.9820576 -0.019543024 -0.017361287   -2.3145788   -2.3586119          nan    152.68111   -13083.618   -23150.511
   12100        0.121    294.02049    6.9783208 -0.028391655 -0.024847618 -0.022450699 -0.022861091          nan    151.98252   -13081.395   -23083.605
   12150       0.1215    292.80837    7.0032141  0.039808476 -0.030484769   -2.3089145   -2.3234188          nan    151.35596   -13079.244   -23375.126
   12200        0.122    295.82714    7.0244468  0.044592407    0.0127764 -0.022405193 -0.022800477          nan     152.9164   -13079.277   -23606.052
   12250       0.1225    293.54326    7.0317968 -0.013403551  0.014881979   -2.2950187   -2.3425091          nan    151.73583   -13076.562   -23444.251
   12300        0.123    298.01628    7.0698692 -0.0021911564 -0.017788043 -0.022397231  -0.02283705          nan    154.04799   -13077.332   -23499.633
   12350       0.1235    292.19043    7.0693825 -0.022211471 -0.0085847926   -2.2359818   -2.2278578          nan    151.03654   -13072.774   -23461.954
   12400        0.124    294.43138    7.1635638 -0.00014925726  0.012730141 -0.022354311 -0.022776765          nan    152.19491   -13072.373   -23920.482
   12450       0.1245    292.51001    7.1576025  0.052895143   0.01253419   -2.3048088   -2.2829491          nan    151.20174   -13069.808   -24076.773
   12500        0.125    293.71105     7.158247 -0.059450622  0.019443144 -0.022362635 -0.022797265          nan    151.82256   -13068.865   -23727.465
   12550       0.1255    291.99985    7.1194733 -0.078024247 -0.024814821   -2.2987704   -2.3083615          nan    150.93803   -13066.416   -23388.781
   12600        0.126    295.59709    7.2102443  0.022693333 0.0097608152 -0.022310166 -0.022749443          nan    152.79748   -13066.711   -24142.328
   12650       0.1265    296.16157    7.3019053  0.066144777   0.06661142   -2.3402263    -2.327891          nan    153.08927   -13065.406   -24782.205
   12700        0.127    293.71738    7.2596443  0.022766107 -0.0046522066 -0.022296622 -0.022726678          nan    151.82584   -13062.553   -24259.194
   12750       0.1275    295.41318    7.2782509 -0.037356356 -0.050102771   -2.4101762   -2.3253228          nan    152.70242   -13061.825   -23969.306
   12800        0.128    294.48612    7.2646706 -0.026622324 -0.027744471 -0.022301317 -0.022738446          nan    152.22321   -13059.747   -24034.346
   12850       0.1285      293.107    7.3210107  0.059263117 0.0040787351   -2.3292392   -2.2573756          nan    151.51033    -13057.44   -24614.509
   12900        0.129    292.68474    7.3768856  0.051843994  0.012094012 -0.022235894 -0.022674724          nan    151.29206   -13055.618   -24802.745
   12950       0.1295    293.22202    7.4087713 -0.011929759 -0.036885372   -2.2658822   -2.3282875          nan    151.56978   -13054.283   -24533.187
   13000         0.13    298.82119    7.4376398 -0.029892625 -0.0014980496 -0.022262178 -0.022738774          nan    154.46405   -13055.545   -24687.497
   13050       0.1305    292.29786     7.400189 -0.034660802 -0.013053373   -2.3002204   -2.3027384          nan    151.09207   -13050.546   -24508.249
   13100        0.131    288.95533    7.4334339 0.0014185076  0.064310785 -0.022181038 -0.022639314          nan    149.36428   -13047.194   -24997.211
   13150       0.1315    296.49634    7.5050561  0.035734148  0.037700166   -2.3188173   -2.3105928          nan    153.26231   -13049.456   -25261.635
   13200        0.132      289.056    7.4317655  -0.04521195   -0.0264279 -0.022186863 -0.022669239          nan    149.41632   -13043.972   -24533.752
   13250       0.1325    301.37855    7.5567074 -0.024150184 -0.012293893   -2.4310509   -2.3564893          nan    155.78598   -13048.693   -25067.544
   13300        0.133    291.78828    7.5752073   -0.0170231  0.028215689 -0.022144016 -0.022634503          nan    150.82867   -13042.088       -25288
   13350       0.1335    289.48282    7.5764554 0.0037026621 0.0091534155   -2.2675162   -2.2314914          nan    149.63695   -13039.242   -25297.705
   13400        0.134    298.65123    7.6275136  0.036511732  0.028248571 -0.022148973 -0.022612314          nan     154.3762   -13042.323   -25640.913
   13450       0.1345    293.60653    7.5939243 -0.013293402 -0.056647229   -2.3144013   -2.3354844          nan    151.76854   -13038.043   -25079.946
   13500        0.135    290.77694    7.5446938 -0.035204153  -0.02024705 -0.022119499 -0.022591913          nan    150.30589   -13034.928   -24964.142
   13550       0.1355    293.22653    7.5881659  0.078418417  0.043680427   -2.2446991   -2.3299258          nan    151.57211   -13034.535   -25700.882
   13600        0.136    294.35019    7.6506164   0.03122526  0.016618964 -0.022105725 -0.022551791          nan    152.15294   -13033.454   -25661.535
   13650       0.1365    288.29495    7.6712496 -0.071272174 -0.068432518   -2.1910405   -2.3084657          nan    149.02292    -13028.64    -25105.15
   13700        0.137    296.81931    7.7330051 -0.0013165403 0.0083366643 -0.022065913  -0.02257012          nan    153.42926   -13031.354   -25800.084
   13750       0.1375    295.52647    7.7524241   0.01595603  0.049652472   -2.2986663   -2.3476936          nan    152.76098   -13028.995   -26060.109
   13800        0.138    291.25069    7.7123916  0.021712303 -0.0064641626 -0.022049296 -0.022517057          nan    150.55078   -13025.096   -25758.799
   13850       0.1385    288.55819    7.6958233 -0.022898302 -0.084094538   -2.2579634   -2.2949702          nan      149.159   -13022.024   -25296.101
   13900        0.139    292.21313    7.7793834 -0.018596694  0.033121535 -0.022010266 -0.022495854          nan    151.04827   -13022.219   -25979.694
   13950       0.1395    292.80851    7.7626524   0.03200342  0.059693509   -2.2637537   -2.2356189          nan    151.35603   -13020.818   -26181.164
   14000         0.14    290.78192    7.7739784 -0.018391636 0.00024523942 -0.021981021 -0.022484063          nan    150.30847   -13018.072   -25852.773
   14050       0.1405    292.55995    7.8008559 -0.054400551  0.010070867   -2.2427018     -2.29717          nan    151.22755   -13017.273   -25855.087
   14100        0.141    290.98435    7.8449078 0.0028284285 -0.032554213 -0.021974232 -0.022467414          nan    150.41311   -13014.743   -26050.607
   14150       0.1415    296.18122    7.8575383  0.043051585  0.037247456   -2.2853247   -2.3085442          nan    153.09942   -13015.707   -26459.458
   14200        0.142    294.12159    7.8437331  -0.02390802 -0.0041379011 -0.021950728 -0.022445161          nan    152.03478   -13012.916   -26052.291
   14250       0.1425    287.19968    7.7478812 -0.033567345 -0.002019977   -2.1987407   -2.2416521          nan    148.45677   -13007.631   -25707.646
   14300        0.143    293.71432    7.8738105  0.019746234  0.023631537 -0.021932538 -0.022401763          nan    151.82426   -13009.286   -26390.628
   14350       0.1435     291.4975    7.9045649 0.0057878559  0.018934398   -2.3167084   -2.3407082          nan    150.67836   -13006.402   -26430.957
   14400        0.144     294.6357    7.8741604 -0.046018615 0.00047032948 -0.021904391 -0.022425874          nan    152.30053   -13006.298   -26095.374
   14450       0.1445    292.14967    7.8781755 0.0080106477 -0.008594513   -2.2514192   -2.2942494          nan    151.01547   -13003.285   -26258.639
   14500        0.145     290.8319    7.8916896  0.021238627 -0.0060794099 -0.021863054 -0.022352419          nan     150.3343   -13000.867   -26356.163
   14550       0.1455     289.7379     7.878053  0.036487353 -0.022518208    -2.316646   -2.2751639          nan     149.7688   -12998.563    -26306.74
   14600        0.146    291.05198    7.8755564 0.0084610282 -0.023920782  -0.02183202 -0.022332128          nan    150.44807    -12997.51   -26200.322
   14650       0.1465    290.14168    7.8880396  0.011861846  -0.01807914   -2.3291952   -2.2839832          nan    149.97752   -12995.301   -26272.741
   14700        0.147    289.85403    7.8562697  0.029594156 -0.0032762703 -0.021808722 -0.022296826          nan    149.82883   -12993.412   -26275.292
   14750       0.1475    284.83157    7.7802611 0.0071037338 -0.022309076    -2.245094   -2.1919941          nan    147.23266   -12989.101   -25883.519
   14800        0.148    295.22257    7.7739472  0.010271893 -0.036002251 -0.021803858 -0.022299853          nan    152.60389   -12992.754    -25827.39
   14850       0.1485    291.85515    7.6392409 -0.022401768 0.0090253166   -2.3331323   -2.2575676          nan    150.86323    -12989.31   -25419.548
   14900        0.149    295.96817    7.5426105  0.010334563   0.05186927 -0.021777885 -0.022263858          nan     152.9893   -12989.735   -25349.381
   14950       0.1495    295.25224    7.4039377  0.010039178 -0.001891253   -2.3340917   -2.2898733          nan    152.61922   -12987.716   -24706.952
   15000         0.15    304.02056    7.2650055 -0.071123596  0.034185168  -0.02181805 -0.022289366          nan    157.15167   -12990.627   -24093.557
   15050       0.1505    309.56698    7.1267705 -0.049078844  0.019062772   -2.4513675   -2.4118097          nan    160.01867   -12991.928   -23655.848
   15100        0.151    306.69809     6.911152 -0.068385816   0.01273007 -0.021776615 -0.022236292          nan    158.53572   -12988.961   -22851.654
   15150       0.1515    319.26741    6.7401749  0.038975677  0.063540545   -2.5162739   -2.3962184          nan    165.03294   -12994.037    -22808.97
   15200        0.152    319.28619    6.4117552  0.048372635 0.0019629842   -0.0217789 -0.022188073          nan    165.04264   -12992.724   -21540.303
   15250       0.1525     335.4747    6.0896801  0.031858152 -0.071686451   -2.6705705   -2.5785642          nan    173.41067   -12999.863   -20166.173
   15300        0.153    337.88645    5.7313163 -0.0086257228 -0.056823532 -0.021843413 -0.022233501          nan    174.65733   -13000.039   -18886.224
   15350       0.1535    334.72084    5.3875431  0.072478331  -0.03801648   -2.6215956   -2.5148324          nan    173.02099   -12997.514    -18073.35
   15400        0.154     342.0304    5.0719578  0.057930295  0.068710984 -0.021856981 -0.022199966          nan    176.79939   -13000.538   -17328.664
   15450       0.1545     346.5106    4.7211677  0.004679539 -0.010202206   -2.7810459   -2.6415672          nan    179.11525   -13002.263   -15718.817
   15500        0.155    347.72231    4.3780797 -0.065055253 -0.0039264244 -0.021953366 -0.022291037          nan     179.7416   -13002.419    -14363.66
   15550       0.1555    345.72085    4.1566868 -0.078497099  0.058041973   -2.7596779   -2.6598404          nan    178.70702   -13001.037   -13787.439
   15600        0.156    352.91346    4.0470676 -0.00032413902   0.11750658 -0.021948448 -0.022259753          nan    182.42496   -13004.544   -13880.834
   15650       0.1565    355.30306    3.9546563  -0.03687998  0.018411789   -2.7840772   -2.7373698          nan    183.66017   -13005.686   -13120.627
   15700        0.157    353.64653    3.7956129  0.017236398 -0.020414122 -0.022014907 -0.022290233          nan     182.8039   -13004.714   -12641.451
   15750       0.1575    361.69497    3.7141687   0.06307154  0.023943058   -2.8640309   -2.7300324          nan    186.96422   -13008.807   -12670.611
   15800        0.158    360.52666    3.6251051   0.01936415 -0.059177906 -0.022105616 -0.022371603          nan    186.36031   -13008.159   -11950.971
   15850       0.1585    364.75668    3.6227972  0.032174451 -0.079266508   -2.9718974   -2.8124151          nan    188.54686   -13010.272   -11919.017
   15900        0.159    362.85533    3.5756819 -0.044065223  0.017372756 -0.022092644 -0.022373465          nan    187.56403   -13009.253   -11829.965
   15950       0.1595    363.19391    3.5803512 -0.013534165  0.076080543   -2.8641928   -2.8857247          nan    187.73904   -13009.373   -12142.992
   16000         0.16    359.91317    3.4550027  0.011224552  0.079797756 -0.022077142 -0.022355973          nan    186.04319   -13007.653   -11820.083
   16050       0.1605    360.95119    3.4214138 -0.010860946  0.021842636   -2.9081593   -2.8746794          nan    186.57975   -13008.178   -11441.318
   16100        0.161    364.10444    3.3476955 -0.043325111 -0.037770807 -0.022163478 -0.022414776          nan    188.20971   -13009.804   -10888.665
   16150       0.1615    368.76526    3.2747162 -0.028793028 0.0003051527   -2.9469861   -2.9017993          nan    190.61894   -13012.249   -10820.761
   16200        0.162    368.50231    3.3067163  0.061524771 -0.056567645 -0.022136544 -0.022400782          nan    190.48302   -13012.162   -11038.911
   16250       0.1625     360.1726    3.3071438  0.061398264 -0.051713849   -2.9270296   -2.8549134          nan    186.17729   -13007.922   -11056.094
   16300        0.163    363.11155    3.2374907  0.042433084  0.043106488 -0.022132847 -0.022371474          nan    187.69647   -13009.558   -11076.768
   16350       0.1635    362.59563    3.1608747 -0.039909799 -0.011993331   -2.9095307   -2.9752192          nan    187.42979   -13009.419   -10363.239
   16400        0.164    368.58005    3.1163309 -0.054304993  -0.06283763 -0.022204628 -0.022463915          nan     190.5232   -13012.631   -9997.2944
   16450       0.1645    372.76075    3.1361261  0.029011491  0.050938188   -2.9683375   -2.9678485          nan    192.68425   -13014.936   -10720.253
   16500        0.165    363.92767    3.0526071   0.04346032  0.049082515 -0.022161523 -0.022406824          nan    188.11833   -13010.527   -10483.833
   16550       0.1655    375.26214    3.0226861  0.042125017  0.027289623   -3.0006875   -2.9845416          nan    193.97725   -13016.577   -10307.003
   16600        0.166    371.62968    2.9128993 -0.031234485 -0.049523321 -0.022261543 -0.022476931          nan    192.09959   -13014.888   -9440.4717
   16650       0.1665    367.44987    2.7947826 -0.066465404  0.023118567   -2.9365467   -2.8990972          nan      189.939    -13012.95   -9171.4525
   16700        0.167    375.99725    2.7648834 0.0035489738  0.063080841  -0.02224639 -0.022498015          nan    194.35723   -13017.633   -9438.3774
   16750       0.1675    371.57801    2.6312173  0.039958914 0.0070719807   -2.9971008   -2.9532717          nan    192.07288   -13015.646   -8927.4941
   16800        0.168    374.14634    2.5423812 -0.004835991 -0.015992686 -0.022306478 -0.022512071          nan    193.40048   -13017.298    -8405.175
   16850       0.1685      381.124     2.481223 -0.040733142  0.049126321    -2.979804   -3.1541712          nan    197.00731   -13021.273   -8298.7207
   16900        0.169    377.06017    2.3996955  0.025391186 -0.063563393  -0.02236097 -0.022535722          nan    194.90667    -13019.55   -7871.7444
   16950       0.1695     383.5371    2.2911985   0.09374905 -0.029740813   -3.0805842   -3.1849141          nan    198.25467   -13023.327   -7850.6892
   17000         0.17    379.69442    2.2146934  0.060914119 0.0058934643  -0.02241599 -0.022569357          nan    196.26834   -13021.827   -7605.0034
   17050       0.1705    383.21702    2.0259605 -0.057646675 -0.0090487664   -3.1346369   -3.1150623          nan    198.08922   -13024.158   -6530.8835
   17100        0.171    382.15449    1.9527077 -0.078602414 -0.0060991189 -0.022523833 -0.022666449          nan    197.53998   -13024.114   -6226.6871
   17150       0.1715    390.65633    1.8887578 -0.029227298  0.061931236   -3.1602616   -3.1596946          nan    201.93468   -13029.068   -6404.8723
   17200        0.172    392.76807    1.8357501 -0.0016333964  0.068984594 -0.022513518 -0.022680703          nan    203.02626   -13030.769    -6343.671
   17250       0.1725    389.99611    1.7162119 -0.054745577  0.099005688   -3.1579234   -3.1964526          nan     201.5934   -13030.018   -5868.2401
   17300        0.173    387.15937    1.5332674 -0.020325244 -0.0051990511 -0.022606689 -0.022728136          nan    200.12706   -13029.259   -5025.8105
   17350       0.1735    385.15763    1.5110376 -0.036093519  -0.10308301   -3.1300791   -3.1013096          nan    199.09234   -13028.855   -4572.8701
   17400        0.174    390.57938    1.5910174 -0.0060414409  0.025585585  -0.02257571 -0.022708052          nan     201.8949   -13032.353   -5368.5386
   17450       0.1745     384.1063    1.5527367  0.056312722  0.040261646   -3.0688736   -3.0987344          nan    198.54889   -13029.683   -5497.7035
   17500        0.175    391.28815    1.4632812  0.087926805 0.0058239707  -0.02260892 -0.022723555          nan    202.26127   -13034.099   -5190.1067
   17550       0.1755    395.84288    1.4590561   0.07744611 -0.087129541    -3.176058   -3.1698059          nan    204.61566   -13037.179   -4831.2421
   17600        0.176    395.75652    1.4574467 0.0016722445  -0.12201378 -0.022696958 -0.022855158          nan    204.57102   -13037.887   -4457.0171
   17650       0.1765    392.83818    1.4650782 -0.018908973 -0.037848887    -3.249409   -3.1312572          nan     203.0625   -13037.153   -4694.4012
   17700        0.177    398.90382    1.6160879  0.095692735  0.055333214 -0.022630197 -0.022778777          nan     206.1979   -13041.051   -5890.3797
   17750       0.1775    402.05164    1.6190144  0.041591843   0.12626917   -3.3420965   -3.1077624          nan    207.82504   -13043.454   -5956.2515
   17800        0.178    406.51766    1.3685035  -0.06015576  0.045226521 -0.022781469 -0.022888148          nan    210.13358   -13046.554   -4511.9142
   17850       0.1785    403.12593    1.2814832  -0.15996605 -0.069381455   -3.3317207   -3.2394311          nan    208.38036   -13045.607   -3507.1191
   17900        0.179    403.86429     1.362311 -0.033662106  0.028568733 -0.022780381 -0.022902645          nan    208.76202   -13046.859   -4524.0589
   17950       0.1795    404.93553    1.4269753  0.056394132   0.13666424   -3.2239037   -3.2359843          nan    209.31576   -13048.273   -5400.1122
   18000         0.18    407.81479    1.3546732   0.13564015  0.061893527 -0.022779462 -0.022881527          nan    210.80408   -13050.677   -5174.0228
   18050       0.1805      411.591    1.2389993 -0.010407261  -0.05374392    -3.304524   -3.3717581          nan    212.75605   -13053.548   -3916.1603
   18100        0.181    409.64188    1.1754713 -0.057073209  -0.20378237    -0.022947 -0.023046893          nan    211.74852   -13053.432   -3048.7192
   18150       0.1815    411.17805    1.2158507  0.009822922 -0.056779603   -3.3364842   -3.4311682          nan    212.54259   -13055.232   -3896.3133
   18200        0.182    405.70759    1.2827927   0.11026115  0.084096093 -0.022828584 -0.022902581          nan    209.71484   -13053.351   -4923.8331
   18250       0.1825    414.08035    1.3014939  0.063108558   0.13471345   -3.4038487   -3.3645301          nan    214.04282   -13058.655   -4997.7197
   18300        0.183    411.14037    1.1682992   -0.1015738 -0.025194645 -0.022918536 -0.023039769          nan    212.52311   -13058.092   -3471.7692
   18350       0.1835    407.68327    1.1290221  -0.11180324 -0.074161023   -3.3330751   -3.3329056          nan    210.73609   -13057.243   -3143.5262
   18400        0.184    413.40339    1.1873292  0.031672072  0.061322204 -0.022906754 -0.022997843          nan    213.69289   -13061.185    -4267.745
   18450       0.1845    409.51187    1.1821528   0.13072436  0.020107133   -3.3578081   -3.3052875          nan    211.68132   -13060.176   -4443.2809
   18500        0.185     411.4069    1.0979031  0.067985641 -0.036154967 -0.022957913 -0.023060658          nan    212.66088    -13062.21   -3765.7792
   18550       0.1855    418.28181    1.0097126  0.017648244  -0.09057091   -3.4003561   -3.4090232          nan     216.2146   -13066.824   -3122.6331
   18600        0.186    415.78492   0.95073773 -0.074940763 -0.031755127 -0.023080446 -0.023174334          nan    214.92393   -13066.586   -2813.4728
   18650       0.1865     414.6891   0.96743062 -0.014297429 -0.011833429   -3.4278933   -3.4432048          nan    214.35749   -13067.087   -3137.6659
   18700        0.187    407.15103    1.0483484  0.025364924   0.10177936 -0.023006028 -0.023065955          nan    210.46097   -13064.222   -3918.3091
   18750       0.1875    417.02863    1.0167717 -0.039711883  0.048223459   -3.4134021   -3.4435012          nan    215.56682   -13070.375    -3417.611
   18800        0.188    414.42847    0.9619183 -0.049335527  0.018947268 -0.023040045 -0.023145705          nan    214.22277   -13070.102   -3105.1001
   18850       0.1885    418.13968   0.91723668  0.036316617 -0.062688048   -3.5001367   -3.4361659          nan    216.14113   -13073.089   -2969.5508
   18900        0.189    413.13697   0.95666965   0.08651165 -0.061218342  -0.02306681 -0.023114653          nan    213.55518   -13071.573   -3273.2099
   18950       0.1895    414.62588    1.0968674  0.075894004 0.0045338374   -3.4103001   -3.3280001          nan    214.32481   -13073.424   -3924.3174
   19000         0.19    404.68701    1.0785285 -0.049953746 -0.010254662 -0.023014254 -0.023143741          nan     209.1873   -13069.318   -3394.4004
   19050       0.1905     417.9898     1.167389 -0.037750638  0.063169018   -3.3946716   -3.4416467          nan    216.06366   -13077.205   -3976.0246
   19100        0.191    408.74635    1.0938976 -0.044617618   0.05119539 -0.023052313 -0.023146211          nan    211.28562   -13073.469   -3668.2512
   19150       0.1915    412.61364    1.1561929 -0.026460128 0.0098700505   -3.4245865   -3.4033041          nan    213.28466   -13076.513   -3798.6761
   19200        0.192    424.29872    1.2267294  0.020991878 -0.00087700265 -0.023072191 -0.023164238          nan    219.32481   -13083.591   -4156.1477
   19250       0.1925    413.85043    1.2587886  0.057799821 -0.079879113    -3.437961   -3.3186292          nan    213.92397   -13079.232   -4122.3643
   19300        0.193    416.40341    1.3043736   0.12121524 -0.057169341 -0.023025129 -0.023156797          nan    215.24364   -13081.596   -4561.3984
   19350       0.1935    414.41568    1.3480591  0.039266983 -0.089024876    -3.339092   -3.4516243          nan    214.21615   -13081.651   -4327.6707
   19400        0.194    416.73492     1.305128  0.022209319  0.052278979 -0.023062726 -0.023156935          nan      215.415   -13083.883   -4598.7209
   19450       0.1945    411.51137    1.2689652 -0.046798522  0.060517901   -3.4236761   -3.4001897          nan    212.71489   -13082.152   -4275.6152
   19500        0.195    409.75983    1.1540679 -0.038616738  0.067029986 -0.023095868 -0.023208612          nan    211.80949   -13082.239   -3941.6039
   19550       0.1955    408.79631    1.1350381 -0.013343913 -0.052341632   -3.2436763   -3.4042168          nan    211.31144   -13082.765   -3564.5086
   19600        0.196    410.44065    1.2025847 -0.046174651 -0.028864944 -0.023123167 -0.023184615          nan    212.16142   -13084.609   -3758.4838
   19650       0.1965    406.29645    1.2361511 0.0033384422  0.048176759   -3.3518546   -3.2426876          nan    210.01923   -13083.467   -4292.2212
   19700        0.197    411.18681     1.194101  0.066357446  0.078022778 -0.023077367 -0.023172247          nan    212.54712   -13087.005    -4461.604
   19750       0.1975    412.89506    1.1645585  0.025107153  -0.01793132   -3.3522856   -3.2740026          nan    213.43013   -13088.926    -3905.781
   19800        0.198    404.05349    1.0724971  -0.11986189  -0.12866493 -0.023160771 -0.023290576          nan    208.85982   -13085.358   -2746.5677
   19850       0.1985    406.43138    1.1333225  0.031244558 -0.083534394   -3.2235228   -3.4050427          nan    210.08898   -13087.618   -3603.4424
   19900        0.199    412.73965    1.2414044   0.13286855   0.08738096 -0.023053918 -0.023141141          nan     213.3498   -13091.886   -4872.1798
   19950       0.1995    410.58819    1.2056831   0.02645145   0.11659084   -3.3567936   -3.3250175          nan    212.23768   -13091.811   -4495.7512
   20000          0.2    410.43872    1.1150869 -0.084432827 -0.058750672 -0.023182236 -0.023274338          nan    212.16042    -13092.73   -3239.6782
Loop time of 1042.31 on 4 procs for 20000 steps with 4000 atoms

Pair  time (%) = 969.555 (93.0198)
Neigh time (%) = 0.466661 (0.0447717)
Comm  time (%) = 41.6252 (3.99355)
Outpt time (%) = 0.198824 (0.0190753)
Other time (%) = 30.4648 (2.92281)

######################################
# SIMULATION DONE
print "All done"
All done
