# ----------------------- ATOM DEFINITION ----------------------------
lattice		fcc 4.05
Lattice spacing in x,y,z = 4.05 4.05 4.05
region		whole block 0 12 0 12 0 12
create_box	1 whole
Created orthogonal box = (0 0 0) to (48.6 48.6 48.6)
lattice 	fcc 4.05 orient x 1 0 0 orient y 0 1 0 orient z 0 0 1
Lattice spacing in x,y,z = 4.05 4.05 4.05
create_atoms	1 region whole
Created 6912 atoms

# ------------------------ FORCE FIELDS ------------------------------

#****************USE THIS TO TEST******************
pair_style	eam/rad
pair_coeff 		* * Al99.PC0.05.eam.alloy.rad.txt Al # pc = 0.5   error generating

# to test with error = 0 use this potential
# pair_coeff	* * Al99.eam.alloy.005pcrad_NULL_noerror Al

#****************USE THIS TO RUN REFRENCE***********
# pair_style	eam/alloy
# pair_coeff	* * Al99.eam.alloy Al

# ------------------------- SETTINGS ---------------------------------
compute csym all centro/atom fcc
compute peratom all pe/atom

######################################
# EQUILIBRATION
reset_timestep	0
timestep	0.001 # default
# timestep	0.0001 # tiny time step
velocity all create 300 12345 mom yes rot no
fix 1 all npt temp 300 300 1 iso 0 0 1 drag 1

# Set thermo output
thermo 50
# thermo 1 # debug mode

# thermo_style custom step lx ly lz press pxx pyy pzz pe temp
# IMPLEMENTATION HERE

# VERSION add rad variables .v1 .v2
# thermo_style custom step lx ly lz press pxx pyy pzz pxxrad pyyrad pzzrad pe temp

# VERSION ublb separation .v3
thermo_style custom step lx ly lz press pxx pxxrad pyy pyyrad pzz pzzrad pe temp

# Run for at least 10 picosecond (assuming 1 fs timestep)
run 	20000 # default
Step Lx Ly Lz Press Pxx Pxxrad Pyy Pyyrad Pzz Pzzrad PotEng Temp
0         48.6         48.6         48.6     2496.386    2451.7623    242.99145    2520.4586    242.99145     2516.937     485.9829    -23224.32          300
Averages over the last 201 of 401 rows, steps 10000 to 20000:
Lx Ly Lz Press Pxx Pxxrad Pyy Pyyrad Pzz Pzzrad PotEng Temp
48.7647 48.7647 48.7647 -1.07398 -22.9013 235.123 -9.37947 233.981 29.0589 479.255 -22976.5 278.483
Loop time of 1480.35 on 4 procs for 20000 steps with 6912 atoms

Pair  time (%) = 1384.36 (93.5161)
Neigh time (%) = 0 (0)
Comm  time (%) = 67.894 (4.58635)
Outpt time (%) = 0.629659 (0.0425345)
Other time (%) = 27.4606 (1.85501)

# run 	200000

# Use this if debug
# run 	1000
# run 200
unfix 1

# Store final cell length for strain calculations
variable tmp equal "lx"
variable L0 equal 48.782905480623
Initial Length, L0: 48.782905480623

######################################
# DEFORMATION
reset_timestep	0
set atom * xrad 0 yrad 0 zrad 0 vxrad 0 vyrad 0 vzrad 0
  6912 settings made for xrad
  6912 settings made for yrad
  6912 settings made for zrad
  6912 settings made for vxrad
  6912 settings made for vyrad
  6912 settings made for vzrad
fix		1 all npt temp 300 300 1 y 0 0 1 z 0 0 1 drag 1

variable srate equal 1.0e10
# variable srate equal 1.0e9 # tiny time step

variable srate1 equal "v_srate / 1.0e12"
fix		2 all deform 1 x erate 0.01 units box remap x

# Output strain and stress info to file
# for units metal, pressure is in [bars] = 100 [kPa] = 1/10000 [GPa]
# p2, p3, p4 are in GPa
variable strain equal "(lx - v_L0)/v_L0"
variable p1 equal "v_strain"
variable p2 equal "-pxx/10000"
variable p3 equal "-pyy/10000"
variable p4 equal "-pzz/10000"

# IMPLEMENTATION HERE
variable p5 equal "-pxxrad/10000"

# VERSION add rad variables
variable p6 equal "-pyyrad/10000"
variable p7 equal "-pzzrad/10000"

# VERSION ublb coupled/decoupled scheme
# variable p6 equal "-pxxub/10000"
# variable p7 equal "-pxxlb/10000"

# Use cfg for AtomEye
# dump 		1 all cfg 250 dump.tensile_*.cfg mass type xs ys zs c_csym c_peratom fx fy fz
# dump_modify 1 element Al

# print output to a text file every n timesteps
# dump		2 all custom 50 dump.xyz_rvf_rad.tensile_*.txt mass type id x y z vx vy vz fx fy fz xrad yrad zrad vxrad vyrad vzrad fxrad fyrad fzrad # use for rad developement
# dump		2 all custom 50 dump.xyz_rvf_rad.tensile_*.txt mass type id x y z vx vy vz fx fy fz xrad yrad zrad vxrad vyrad vzrad fxrad fyrad fzrad xub yub zub vxub vyub vzub fxub fyub fzub xlb ylb zlb vxlb vylb vzlb fxlb fylb fzlb # use for ublb developement

# Display thermo
thermo 	50
# thermo 1
# thermo_style	custom step v_strain temp v_p2 v_p3 v_p4 ke pe press

# IMPLEMENTATION HERE
thermo_style	custom step v_strain temp v_p2 v_p3 v_p4 v_p5 v_p6 v_p7 ke pe press
run	20000
Step strain Temp p2 p3 p4 p5 p6 p7 KinEng PotEng Press
       0 -4.3696213e-16    294.42241  0.012090582  0.024103413 0.0035848933 -0.023908529 -0.023908623          nan    263.01251   -22956.783    -132.5963
      50       0.0005    295.33576  0.078089519  0.026289372  0.014579731  -0.01579267 -0.081611168          nan    263.82841   -22957.494   -396.52874
     100        0.001    300.19273  0.079307839 -0.0060134967  0.014027974 -0.023895141 -0.023902906          nan    268.16722   -22961.701   -291.07439
     150       0.0015    296.64056  0.081284654 -0.013273406 0.00014421154 -0.0068934784 -0.041822432          nan    264.99402   -22958.382   -227.18487
     200        0.002    300.31323   0.14122088 -0.014259365 -0.018619634 -0.023884477 -0.023910788          nan    268.27488   -22961.489   -361.13961
     250       0.0025    294.53422   0.18527318  0.018278998 -0.00065450614 -0.012800407 -0.025430549          nan    263.11239   -22956.132   -676.32556
     300        0.003    295.92217   0.21972622  0.020581645  0.024873053 -0.023841679 -0.023865038          nan    264.35226   -22957.154   -883.93639
     350       0.0035     297.4606    0.2319061 -0.0057615724 -0.0057608541 -0.042962649 -0.036503177          nan    265.72657   -22958.302   -734.61225
     400        0.004    295.16568   0.23443856 -0.022615856 -0.016421359 -0.023855988 -0.023890276          nan    263.67648   -22956.005   -651.33781
     450       0.0045    297.57972   0.30737003  -0.01802179 -0.0023253027    0.0118312 -0.012772351          nan    265.83298   -22957.903   -956.74314
     500        0.005    300.86619   0.33573859  0.023443792  0.030422666   -0.0238131 -0.023858082          nan    268.76884   -22960.563   -1298.6835
     550       0.0055    298.29979   0.37735503 0.0093063668  0.024078021 -0.013025335 -0.023330578          nan    266.47623    -22957.98   -1369.1314
     600        0.006    297.46425   0.38752585 0.0063780934 -0.020931922 -0.023808206 -0.023853144          nan    265.72983    -22956.92   -1243.2401
     650       0.0065    295.79509   0.41561707 -0.0047353192 -0.024490109 -0.0030412253 -0.012821591          nan    264.23874     -22955.1   -1287.9721
     700        0.007    297.24252   0.44311835 0.0017731224 -0.011871961 -0.023788299 -0.023847162          nan    265.53176   -22956.057   -1443.3984
     750       0.0075    300.97052   0.49970933  0.035927835  0.019644639 -0.057223667 -0.045137198          nan    268.86204   -22959.028   -1850.9394
     800        0.008    294.34279   0.51320319 -0.012319015 0.0085432455 -0.023777175 -0.023825143          nan    262.94138   -22952.745   -1698.0914
     850       0.0085    297.08985   0.55047897 -0.010955113 -0.015489729 -0.0032749354 -0.025298113          nan    265.39537   -22954.811   -1746.7804
     900        0.009    298.21644   0.59149926  -0.02104811 0.0091122583 -0.023750454 -0.023813924          nan    266.40177   -22955.414    -1931.878
     950       0.0095     297.4322   0.62915472  0.027583383  0.018692431 0.0023921566 -0.016795618          nan     265.7012   -22954.298   -2251.4351
    1000         0.01    297.49266   0.66665883 -0.0072261886  0.024564068 -0.023731771 -0.023795138          nan    265.75521   -22953.929    -2279.989
    1050       0.0105    296.25608   0.66837981 0.0029688931 -0.017643121 -0.057363497 -0.027769598          nan    264.65055   -22952.383   -2179.0186
    1100        0.011     298.6668   0.70132904 -0.0022158583 -0.0083765424 -0.023725557 -0.023801717          nan    266.80408   -22954.081   -2302.4555
    1150       0.0115    296.66819   0.74821784 0.0075799998 -0.026965735 -0.063196568 -0.0037199545          nan     265.0187   -22951.839   -2429.4403
    1200        0.012    298.03769   0.79875889 0.0037700197  0.023461974 -0.023695036 -0.023769409          nan     266.2421   -22952.587    -2753.303
    1250       0.0125    300.10342    0.8144265 0.0064063072  0.032395052 -0.026661603   0.02793093          nan    268.08745   -22953.947   -2844.0929
    1300        0.013    300.11928   0.84626798 0.0036983382 -0.0099357726  -0.02369154 -0.023765552          nan    268.10162   -22953.463   -2800.1018
    1350       0.0135    301.20106   0.86205453 -0.0050040613 0.0081398855 -0.072463123 -0.038540029          nan    269.06799   -22953.921   -2883.9679
    1400        0.014    296.88312   0.92575336 0.0021857943 -0.0054823402 -0.023668317 -0.023747794          nan     265.2107   -22949.541   -3074.8561
    1450       0.0145    299.01579    0.9409577  0.012525796  0.028414975 -0.032894978 -0.0077459864          nan    267.11584   -22950.916   -3272.9949
    1500        0.015    297.58973   0.96649204 -0.0020404599 0.0017535111 -0.023661981 -0.023753322          nan    265.84193   -22949.105   -3220.6836
    1550       0.0155    301.44548   0.99420002 -0.020364834  0.020425795  0.035088445 -0.013664208          nan    269.28633   -22951.997   -3314.2033
    1600        0.016    298.08266    1.0265851  0.018207081 -0.023699798 -0.023641387  -0.02373459          nan    266.28226   -22948.432   -3403.6414
    1650       0.0165    299.08517    1.0927887  0.016448132   0.02476324 -0.018836089 -0.029911913          nan    267.17782   -22948.749   -3780.0001
    1700        0.017     294.3183    1.0849322  0.017094225 -0.016503827 -0.023628296 -0.023722642          nan     262.9195   -22943.911   -3618.4087
    1750       0.0175    300.01199    1.1196112 -0.0078083748 -0.011369546 -0.024212285  0.012325776          nan    268.00577   -22948.404   -3668.1108
    1800        0.018    295.63528    1.1332693 -0.00082817483 -0.016117438 -0.023618472 -0.023716559          nan    264.09598   -22943.899    -3721.079
    1850       0.0185    302.05272    1.2138533 -0.0083498532 0.0073757415  0.032498442  0.010708992          nan    269.82879   -22949.018   -4042.9305
    1900        0.019    297.28359    1.2225608 -0.0022412515  0.026355956 -0.023599274 -0.023698178          nan    265.56845   -22944.134   -4155.5849
    1950       0.0195    297.46472    1.2715496 -0.0025257135  0.026675865 -0.025381964 -0.021784351          nan    265.73025   -22943.665   -4318.9993
    2000         0.02    299.24477    1.2753475 0.0024742404 -0.0015624753 -0.023592507 -0.023691762          nan     267.3204   -22944.612   -4254.1974
    2050       0.0205    298.42048    1.3167482 -0.013839989 -0.027935528  0.019580747  -0.04114355          nan    266.58404   -22943.222   -4249.9091
    2100        0.021    296.18991    1.3511535 0.0081329827 -0.019187499 -0.023567792  -0.02367663          nan    264.59144   -22940.567   -4466.9967
    2150       0.0215    300.40674    1.4036719  0.030961518  0.021799312 0.0037043568  -0.02958159          nan    268.35841   -22943.655   -4854.7756
    2200        0.022    296.68443    1.4217363 0.0021040985 0.0032496512 -0.023550645 -0.023657432          nan     265.0332   -22939.651   -4756.9668
    2250       0.0225    295.78536    1.4272522 -0.0087129819 -0.012842636 -0.042284574 -0.0046126533          nan    264.23005   -22938.162   -4685.6551
    2300        0.023    298.28169    1.4737972 -0.028912289 -0.0090624085 -0.023550032 -0.023660415          nan    266.46007   -22939.683   -4786.0748
    2350       0.0235    298.20585    1.5067833 -0.013924467  0.032712686 -0.057090065  0.020437745          nan    266.39232   -22938.904   -5085.2384
    2400        0.024    301.97864    1.5513312 0.0019924445  0.010352486 -0.023529077 -0.023638404          nan    269.76261   -22941.556   -5212.2539
    2450       0.0245    299.84064    1.5767893  0.011008771 0.0092582246   0.01498194 -0.041312806          nan     267.8527   -22938.915   -5323.5211
    2500        0.025    302.44067    1.5945245   0.02630236 -0.015743401 -0.023524124 -0.023630507          nan    270.17535   -22940.496   -5350.2781
    2550       0.0255    294.20809    1.6283368 -0.020066621 -0.019287241 -0.030175234 -0.019788842          nan    262.82105   -22932.392   -5296.6097
    2600        0.026    301.05513     1.684284  0.021245501 0.0063255091 -0.023493788 -0.023604984          nan    268.93763   -22937.742   -5706.1833
    2650       0.0265    298.40883    1.7041091 0.0068520582 0.0058606626 0.0020021418 -0.042088043          nan    266.57364   -22934.605   -5722.7395
    2700        0.027    297.10595     1.719449 -0.0071895507  0.011688404 -0.023491827 -0.023610303          nan    265.40976   -22932.663   -5746.4928
    2750       0.0275    299.18034    1.7431485 -0.0080323942 -0.012682173 -0.026241575  0.026138343          nan    267.26284   -22933.727   -5741.4464
    2800        0.028    295.54133    1.7889353 -0.028788876 -0.0036040073 -0.023477532 -0.023598197          nan    264.01205   -22929.675   -5855.1414
    2850       0.0285     301.1306    1.8526926  0.011063432  0.025019691  -0.02589044 -0.058114704          nan    269.00504    -22933.85    -6295.919
    2900        0.029    298.02143    1.8619501  0.018056256  0.016753062 -0.023443242 -0.023577392          nan    266.22757   -22930.252   -6322.5312
    2950       0.0295     300.7705    1.8989102  0.014521849 -0.0079708326 -0.044983038  0.012993054          nan    268.68336   -22931.872   -6351.5375
    3000         0.03    300.60198    1.8999597 -0.012125309  -0.01199202 -0.023460475 -0.023590036          nan    268.53282   -22930.873   -6252.8079
    3050       0.0305    298.72978    1.9402919 -0.0069640669 -3.5488625e-06 -0.031124663 -0.014729208          nan    266.86035   -22928.347   -6444.4141
    3100        0.031    297.13731    1.9794062  0.022529762 -0.0029567969 -0.023438745 -0.023561848          nan    265.43777   -22926.064   -6663.2637
    3150       0.0315    298.73989     2.028782 -0.0028964518  0.013114988 -0.039774462 -0.034277991          nan    266.86938   -22926.618   -6796.6685
    3200        0.032    299.10889    2.0623284  0.011871537 0.0053173581 -0.023428883  -0.02355364          nan    267.19902   -22926.059   -6931.7245
    3250       0.0325    299.45118    2.0642593 -0.030487225  0.019589927 -0.012327993 0.0054725035          nan    267.50479   -22925.467   -6844.5399
    3300        0.033    297.48708    2.1044186 -0.0041394264 -0.030436691 -0.023420407 -0.023553452          nan    265.75023   -22922.805   -6899.4751
    3350       0.0335    298.48819    2.1489702  0.022366241 0.0099301664 0.0033494098 -0.0012828876          nan    266.64454   -22922.777   -7270.8887
    3400        0.034    300.87501    2.1739322  0.035004723   0.01102439 -0.023387078  -0.02351783          nan    268.77672   -22923.984   -7399.8709
    3450       0.0345    299.53726    2.2088094  0.015437443  -0.02877763 -0.031145216  0.035575231          nan    267.58168   -22921.859   -7318.2309
    3500        0.035    300.04516    2.2258279 -0.017152332  0.011158006 -0.023388959 -0.023526914          nan     268.0354   -22921.359   -7399.4451
    3550       0.0355    298.56995    2.2580456 -0.0091523287  0.010698785 -0.0033630953 -0.020548925          nan    266.71757   -22919.081   -7531.9736
    3600        0.036    297.87432    2.2957564 -0.0029715804  0.037462624 -0.023370742 -0.023503184          nan    266.09616   -22917.488   -7767.4916
    3650       0.0365    298.74612    2.3439454 -0.0032179079 0.0043256186 -0.010128184 -0.010057365          nan    266.87494   -22917.284   -7816.8437
    3700        0.037    296.91627    2.3290209 -0.011570185 -0.020532129 -0.023369262  -0.02351311          nan    265.24031   -22914.661   -7656.3954
    3750       0.0375    299.28617    2.3830145 0.0061173038 0.0014026873 -0.0093666112 -0.026709494          nan    267.35738    -22915.78   -7968.4483
    3800        0.038    297.50999    2.4155826 0.0083085768  0.027431333 -0.023345295  -0.02348717          nan    265.77069   -22913.186   -8171.0751
    3850       0.0385    299.10503    2.4467813  0.026973278 -0.023126624 -0.0049684511  0.041420424          nan    267.19557   -22913.595     -8168.76
    3900        0.039    301.12811    2.4628871 0.0024929693 0.0076666794 -0.023344505 -0.023481679          nan    269.00282   -22914.372   -8243.4891
    3950       0.0395    294.34393     2.475402 -0.0064458408 -0.021995724 -0.0052013728 -0.031420358          nan     262.9424   -22907.275   -8156.5347
    4000         0.04    299.26135    2.5098841  -0.01878609  0.023526086 -0.023326102 -0.023473907          nan    267.33521   -22910.627   -8382.0803
    4050       0.0405    299.17561    2.5642833 0.00055588054 -0.016228695 -0.018592842 -0.064206783          nan    267.25862   -22909.493   -8495.3684
    4100        0.041    301.89078    2.5951416  0.026718002  0.025789562 -0.023303732 -0.023462314          nan    269.68412   -22910.855   -8825.4972
    4150       0.0415    296.69299    2.6157436 -0.012846778 0.0045410228 -0.012516065  0.020496985          nan    265.04085   -22905.143   -8691.4596
    4200        0.042    298.68859    2.6498056 0.0054865239 -0.010570787 -0.023299969 -0.023449237          nan    266.82355    -22905.83   -8815.7379
    4250       0.0425    301.58788    2.6801479  0.015002285 0.0052441912  0.011259699  0.012576484          nan    269.41354   -22907.321   -9001.3147
    4300        0.043    299.22895    2.6823342 -0.0011094993 0.0087596387 -0.023295504 -0.023451051          nan    267.30627    -22904.11   -8966.6143
    4350       0.0435    296.92596    2.7387549 -0.022667401 -0.018371648  -0.03202931 -0.017220238          nan    265.24897   -22900.941   -8992.3863
    4400        0.044    298.37183    2.7460796  0.031759607 -0.00018234778 -0.023282263 -0.023427304          nan    266.54059   -22901.107   -9258.8564
    4450       0.0445    296.98152    2.7985391 0.0093134876 -0.011703082 -0.032929934  -0.01949061          nan     265.2986   -22898.732   -9320.4985
    4500        0.045    297.20095    2.8223492 -0.010542318  0.011327849 -0.023270184 -0.023424888          nan    265.49462   -22897.781   -9410.4491
    4550       0.0455    304.81031    2.8587796  0.013064701  0.008675055 -0.009177011 -0.055799235          nan    272.29219   -22903.421   -9601.7312
    4600        0.046     297.5727    2.8687664   -0.0270374  0.017459228 -0.023258647 -0.023416856          nan    265.82671   -22895.792   -9530.6275
    4650       0.0465    298.24764    2.9142792 0.0061618325 -0.0017360236 -0.012105342 -0.016723597          nan    266.42964   -22895.221   -9729.0169
    4700        0.047    298.46993    2.9650912  0.010127486 0.0062549945  -0.02323205   -0.0234032          nan    266.62822   -22894.222   -9938.2457
    4750       0.0475    300.28466    2.9922645 -0.016785066  0.011920492 -0.034965946 -0.046360367          nan    268.24935   -22894.642   -9957.9997
    4800        0.048    298.21299    3.0068107  0.016612574 -0.0098219715 -0.023218384 -0.023386314          nan    266.39869   -22891.576   -10045.338
    4850       0.0485    298.09479    3.0464846 0.0067864578 -0.017162847 -0.028591814 -0.052660946          nan     266.2931   -22890.244   -10120.361
    4900        0.049     301.1692    3.0698547  0.013246035 0.0018516261 -0.023212806 -0.023375744          nan    269.03952   -22891.758   -10283.175
    4950       0.0495    294.55825    3.1008363 -0.019203036 -0.015004245 -0.020268522  0.021021645          nan    263.13386   -22884.611   -10222.097
    5000         0.05    300.68304    3.1450832  0.013309609  0.021108186 -0.023185211  -0.02335161          nan    268.60523   -22888.819   -10598.337
    5050       0.0505    299.21361    3.1635675 0.0022123177  0.020868545 -0.027368061  0.011896606          nan    267.29257   -22886.242   -10622.161
    5100        0.051    297.92206    3.1680434 -0.015326854 -0.003911067  -0.02319994 -0.023374842          nan     266.1388   -22883.819   -10496.018
    5150       0.0515    298.00657    3.1916115 -0.0081851793   -0.0317481   0.01618157 0.0099508615          nan    266.21429   -22882.611   -10505.594
    5200        0.052    302.09054    3.2597461   0.02194846  0.019979304 -0.023168358   -0.0233402          nan    269.86257   -22884.962   -11005.579
    5250       0.0525    297.91876     3.278078  0.013263525  0.015836426 -0.026756203 -0.011827896          nan    266.13585   -22879.929   -11023.927
    5300        0.053    301.17452    3.3255966 -0.0049711497   0.01940093 -0.023150636 -0.023336957          nan    269.04428   -22881.521   -11133.421
    5350       0.0535    298.82254    3.3320568 0.0080683164 -0.020748826 -0.057940509 -0.023617538          nan    266.94321   -22878.086   -11064.588
    5400        0.054    297.71666    3.3637597 -0.021554039 0.0064926427 -0.023145822 -0.023334724          nan    265.95531   -22875.758   -11162.328
    5450       0.0545    296.85096    3.3998157 -0.00044688395 0.0074616865 -0.0032665337 -0.010755215          nan    265.18196   -22873.634   -11356.102
    5500        0.055    298.23017    3.4171028 -0.00016772477  0.002787692 -0.023132366 -0.023313921          nan    266.41404   -22873.504   -11399.076
    5550       0.0555    297.48181    3.4537559  0.010583503 -0.016629208  0.024282335  0.013840312          nan    265.74552   -22871.473   -11492.367
    5600        0.056    297.68811     3.488224 -0.0014306493 -0.015542754 -0.023115589 -0.023302079          nan    265.92981   -22870.278   -11570.835
    5650       0.0565    299.14961     3.535853  0.013810998 -0.0098858984 -0.017573082 0.0084712346          nan    267.23539   -22870.188    -11799.26
    5700        0.057    294.53154    3.5440337 -0.0044251269  0.027048956 -0.023099776 -0.023281351          nan    263.10999    -22864.66   -11888.858
    5750       0.0575    298.03755     3.574456  0.002858894 0.0093594384 -0.010381365 -0.022360663          nan    266.24197   -22866.379   -11955.581
    5800        0.058    299.49226    3.5959861 -0.020094253 -0.018408259 -0.023096493  -0.02329517          nan    267.54149   -22866.253   -11858.279
    5850       0.0585    298.10482    3.6099413 -0.0015642411 -0.0012408473 -0.039553216  0.006776496          nan    266.30206   -22863.592   -12023.787
    5900        0.059    300.94051    3.6718317 -0.0042129998 0.0062727083 -0.023078533 -0.023262166          nan    268.83524   -22864.687   -12246.305
    5950       0.0595    297.66708     3.695075  0.021252308  0.012288374  0.010974117 -0.023020375          nan    265.91102   -22860.314   -12428.719
    6000         0.06     296.6761    3.7229957 -0.0067245594 0.0045610274 -0.023063284 -0.023249073          nan    265.02576   -22857.967   -12402.774
    6050       0.0605    301.44671    3.7339932 -6.6454518e-05  0.011260293  -0.03629154 -0.029421874          nan    269.28743   -22860.762   -12483.957
    6100        0.061    297.43535    3.7715868 -0.0059367421 -0.034990951 -0.023056792 -0.023257266          nan    265.70401   -22855.697    -12435.53
    6150       0.0615    294.71288    3.7995815 -0.013299738  0.023966304 -0.039700813  0.012330747          nan    263.27199   -22851.771   -12700.827
    6200        0.062    296.58938    3.8447489  0.024831373  -0.02543623 -0.023028016 -0.023216548          nan    264.94829   -22851.947   -12813.813
    6250       0.0625    297.90934      3.87273 0.0056513044 0.0051147957 -0.021971985 -0.088221547          nan    266.12744   -22851.608   -12944.987
    6300        0.063    296.01085    3.8824638 -0.017105304   -0.0260817 -0.023027654 -0.023219154          nan    264.43148   -22848.389   -12797.589
    6350       0.0635     297.0162    3.9042059 0.00053880127 -0.010051297 -0.020550768 -0.039614487          nan    265.32958   -22847.763   -12982.311
    6400        0.064    299.45135    3.9593597 0.0023617535 0.0094966095 -0.023005145 -0.023207355          nan    267.50494   -22848.398   -13237.394
    6450       0.0645    301.98276    3.9939073  0.012347197  0.032880739 -0.029550354 -0.019224019          nan    269.76629   -22849.108   -13463.784
    6500        0.065    296.54128    3.9951183 0.0031358897 -0.025506063 -0.022990061 -0.023208916          nan    264.90533   -22842.696   -13242.494
    6550       0.0655    299.89244    4.0412225 -0.028833517  0.017328986 -0.019431263  0.010296515          nan    267.89897   -22844.117   -13432.393
    6600        0.066    292.69896    4.0540937 -0.0011728045 -0.010041927 -0.022977272 -0.023181089          nan    261.47292   -22836.111   -13476.263
    6650       0.0665    299.67062    4.1148643  0.019470861 0.0031644446 -0.011769791  -0.05242302          nan    267.70082   -22840.743   -13791.665
    6700        0.067    295.37943    4.1080664 -0.00068260129  0.014369873 -0.022964834 -0.023170813          nan    263.86742   -22835.309   -13739.179
    6750       0.0675    297.04483    4.1357781   0.01476081 -0.024860363  0.017473085  0.003747208          nan    265.35516   -22835.191   -13752.262
    6800        0.068    300.19498    4.1801901 -0.0064445895 -0.038468546 -0.022959109 -0.023185083          nan    268.16923   -22836.383   -13784.257
    6850       0.0685    295.66589       4.1981 -0.010533766   0.01589599 -0.038094157 -0.045214735          nan    264.12332   -22830.713   -14011.541
    6900        0.069    297.12706    4.2425308  0.003801721  0.019042798 -0.022925088 -0.023147557          nan    265.42861   -22830.375   -14217.918
    6950       0.0695     298.0089    4.2878056 -0.0017294716  0.022026879 -0.018573824 0.0019862706          nan    266.21638   -22829.508   -14360.344
    7000         0.07    298.10089    4.2980508 -0.017804436  0.013100538 -0.022929544 -0.023158337          nan    266.29855   -22827.927   -14311.156
    7050       0.0705    299.85853    4.3269048  -0.02262188 -0.015702838 -0.034263781 -0.030571261          nan    267.86868   -22827.821   -14295.267
    7100        0.071    299.45417    4.3753214  0.011787075  0.013632991 -0.022899131 -0.023125493          nan    267.50746   -22825.782   -14669.138
    7150       0.0715     296.9817    4.3894675  0.011537648  0.006250065  0.011954899 -0.0036709887          nan    265.29876   -22821.881   -14690.851
    7200        0.072    299.07354    4.4206337  0.020254871 0.0020936148 -0.022883737 -0.023105156          nan    267.16744   -22822.046    -14809.94
    7250       0.0725    297.51866    4.4142252  0.002130924 -0.024928001  0.019673857  -0.03132068          nan    265.77844   -22818.941   -14638.094
    7300        0.073    299.62365    4.4597567 -0.00038225822 -0.0095718657 -0.022876901  -0.02310509          nan    267.65886   -22819.109   -14832.675
    7350       0.0735    294.56385    4.4955692 -0.010886773 -0.006727652 0.00032896272 -0.039414342          nan    263.13886   -22812.856   -14926.516
    7400        0.074    300.81217    4.5320423   0.01142896  0.034551984 -0.022847785 -0.023087808          nan    268.72058   -22816.695   -15260.077
    7450       0.0745    298.09563    4.5468281  0.018472758 -0.0019622617 0.0024748608 -0.015937515          nan    266.29385   -22812.518   -15211.129
    7500        0.075    298.46868    4.5591976 -0.0094003227 -0.0056809404  -0.02285843 -0.023098697          nan     266.6271    -22811.09   -15147.054
    7550       0.0755    299.70457    4.5875631 -0.013899884 -0.0057560767 -0.022511961 -0.031980633          nan    267.73114   -22810.424   -15226.357
    7600        0.076    298.48734    4.6074694 -0.00024234534  0.017147391 -0.022833814 -0.023085287          nan    266.64377   -22807.563   -15414.581
    7650       0.0765     296.4995    4.6684492 -0.0012614729 -0.0078897593 -0.021780973 -0.0012147281          nan      264.868   -22804.004   -15530.993
    7700        0.077    299.12346    4.6988955  0.018537278  0.014492993  -0.02280732  -0.02304787          nan    267.21203   -22804.545   -15773.086
    7750       0.0775    296.88879     4.701191  0.022717266  0.012702425 -0.025266679 -0.017796622          nan    265.21577   -22800.744   -15788.702
    7800        0.078     299.8037    4.7463938 -0.014919528 -0.029275465 -0.022810914 -0.023064542          nan     267.8197   -22801.527   -15673.996
    7850       0.0785    300.13515    4.7390164 -0.014944909 -0.012943878   0.02257782 -0.024355745          nan    268.11579       -22800   -15703.759
    7900        0.079    296.48786    4.7941117 0.0043243087 0.0070348883 -0.022786295  -0.02302497          nan    264.85761   -22794.911   -16018.236
    7950       0.0795    298.40349    4.8457667  0.018781052  0.027718443 -0.030489437 0.0082737727          nan    266.56887   -22794.776   -16307.554
    8000         0.08    298.46942    4.8656902 0.0071492174 0.0015608354 -0.022759198 -0.023021631          nan    266.62776   -22792.977   -16248.001
    8050       0.0805    300.07794    4.8813674  0.004621629  0.006582319 -0.013204074 -0.021982542          nan    268.06468   -22792.546   -16308.571
    8100        0.081    296.98242     4.891623 -0.024308485 -0.019856148 -0.022767295 -0.023023374          nan     265.2994   -22787.905   -16158.195
    8150       0.0815    298.48597    4.9382568  0.011291901 -0.0075090014 -0.0039979048 -0.046053528          nan    266.64255   -22787.364   -16473.466
    8200        0.082     295.8269    4.9499018  0.016579591  0.023087169 -0.022736219 -0.022989211          nan    264.26715   -22783.103   -16631.895
    8250       0.0825    296.00333    4.9961313 -0.010329184 0.0043374253 -0.058900989   0.03054815          nan    264.42477   -22781.356   -16633.799
    8300        0.083    301.58439    5.0203964  0.021584554 -0.00043560022  -0.02271798 -0.022986863          nan    269.41042   -22784.428   -16805.151
    8350       0.0835    300.64747    5.0422265 0.00080493612 0.0012020228 -0.0095628373 -0.0040190698          nan    268.57346    -22781.67   -16814.112
    8400        0.084    297.61507    5.0667107 -0.0055090983 -0.0019464469 -0.022712216 -0.022978459          nan    265.86456   -22777.026   -16864.184
    8450       0.0845    301.35495    5.1242448  0.013218892  0.031338152 -0.0094892584 -0.048285888          nan    269.20546   -22778.417    -17229.34
    8500        0.085    295.06938    5.1266706   0.01067538 0.00013829342 -0.022690539  -0.02295554          nan    263.59045   -22770.849   -17124.948
    8550       0.0855    296.66242    5.1361315 -0.0057758642 -0.011820926 -0.00054858894 -0.042422982          nan    265.01355   -22770.317   -17061.782
    8600        0.086    294.51058    5.1465789 -0.020256611 -0.009524784 -0.022687721  -0.02296379          nan    263.09126   -22766.431   -17055.992
    8650       0.0865    301.89228    5.2217958  0.018968418   0.02462642 -0.027168323 -0.033442193          nan    269.68547   -22771.042   -17551.302
    8700        0.087    298.41454    5.2332834 0.0057615348 -0.010510579 -0.022659886 -0.022936882          nan    266.57874   -22765.947   -17428.448
    8750       0.0875    300.91373    5.2446317  0.030590562 0.0093879275 -0.013580239 -0.023415944          nan    268.81131   -22766.186   -17615.367
    8800        0.088    294.00837    5.2676617 -0.021604533 -0.013288078 -0.022656292 -0.022929377          nan    262.64263   -22758.011   -17442.564
    8850       0.0885    296.80396    5.3311873 -0.0054690709 -0.0060517654 -0.030158403 -0.016818248          nan    265.13998   -22758.485   -17732.222
    8900        0.089    299.64632    5.3289604  0.019104353  0.021290826 -0.022626544 -0.022911893          nan    267.67911   -22758.996   -17897.852
    8950       0.0895    292.82718    5.3515481 -0.019169789 -0.0051078607 -0.030603234 -0.022631035          nan    261.58746    -22750.87   -17757.568
    9000         0.09    294.80376    5.3887849 -0.029052392  -0.01214251 -0.022610789 -0.022910749          nan    263.35317   -22750.587     -17825.3
    9050       0.0905    299.57625    5.4161059  0.032513717  0.005670397 -0.034958293 -0.034413458          nan    267.61651   -22752.789   -18180.967
    9100        0.091    298.51827     5.448192 -0.00096741444  0.019031409 -0.022595979 -0.022895017          nan     266.6714   -22749.781   -18220.853
    9150       0.0915    294.53043    5.4651835 -0.023340429 -0.013293816 -0.026010941   0.02349952          nan      263.109   -22744.143   -18095.164
    9200        0.092    300.17968     5.520148  0.021717069 0.0028420272 -0.022579468 -0.022871845          nan    268.15557   -22747.099   -18482.357
    9250       0.0925    297.37784    5.5343547  0.015244755 -0.0040633339 -0.018836407 0.0058058497          nan    265.65264   -22742.496   -18485.121
    9300        0.093    298.06095     5.571749  0.017060799 -0.016593583 -0.022566419  -0.02285729          nan    266.26288   -22741.004   -18574.054
    9350       0.0935    295.64346    5.5808192 0.0069682785 -0.023079409 -0.028391467 -0.007715154          nan    264.10329   -22736.736   -18549.027
    9400        0.094    298.83715    5.6188026 0.0066679495  0.027975577 -0.022548361 -0.022842736          nan    266.95627   -22737.463    -18844.82
    9450       0.0945    296.43626    5.6309476 -0.026797972  0.016923302  -0.02257889 -0.0067290157          nan    264.81151   -22733.182    -18736.91
    9500        0.095    297.66731    5.6570647 -0.010257932 -0.0033768618 -0.022533154 -0.022853101          nan    265.91123   -22732.137   -18811.433
    9550       0.0955    295.54368    5.7033028 -0.022960005 -0.0045587683 -0.031563461  -0.00705932          nan    264.01415   -22728.089    -18919.28
    9600        0.096    297.50067    5.7349005  0.018297844  0.035194352 -0.022497239 -0.022808181          nan    265.76237   -22727.674   -19294.642
    9650       0.0965    297.67602    5.7762912 0.0015752078  0.021254041  0.014409268  0.022800526          nan    265.91901   -22725.653   -19330.401
    9700        0.097    294.05848    5.7649555 -0.034360989 -0.028838001 -0.022503409 -0.022822749          nan     262.6874   -22720.233   -19005.855
    9750       0.0975    296.36022    5.7823299  0.013632588 -0.034031457 -0.010884817 -0.018515137          nan    264.74358   -22720.098   -19206.437
    9800        0.098    297.28085    5.8349566  0.022417908 -0.0045471146 -0.022468171 -0.022786914          nan    265.56599   -22718.712   -19509.425
    9850       0.0985    293.90741    5.8439128 0.0040718116 -0.014674771 -0.0036709072 -0.048136714          nan    262.55244    -22713.49   -19444.366
    9900        0.099    298.68946     5.877548  0.046240832  0.007753438 -0.022455632  -0.02276615          nan    266.82433   -22715.548   -19771.808
    9950       0.0995     298.1949    5.8977393 -0.0078994498 -0.008895316  -0.02219785 -0.061888653          nan    266.38253   -22712.884   -19603.148
   10000          0.1     298.5318    5.9277764 -0.022246793 0.0060974705 -0.022442818 -0.022771376          nan    266.68349   -22710.938   -19705.424
   10050       0.1005    298.62389    5.9810793 0.0088569722  0.036574501 -0.029168742 -0.0082703273          nan    266.76575   -22708.756   -20088.369
   10100        0.101     298.5899    6.0022174 -0.012615573   0.01170883 -0.022417013 -0.022759793          nan    266.73539   -22706.461   -20004.369
   10150       0.1015    298.33491    6.0264743 -0.0069519797  0.017978808 -0.038770689 -0.059454898          nan    266.50761   -22703.963   -20125.004
   10200        0.102    291.95148    6.0249611 -0.023782347 -0.0032900254 -0.022403229 -0.022739767          nan    260.80518   -22695.991   -19992.963
   10250       0.1025    301.23346    6.0832792  0.039500914  0.023334806 -0.0048695435  -0.02372853          nan    269.09693   -22701.992    -20487.05
   10300        0.103    299.16649    6.1090057   0.02213039 -0.030662615 -0.022392614 -0.022732237          nan    267.25047    -22697.84   -20334.911
   10350       0.1035    295.64252    6.1073847 -0.021746256 -0.025218044  0.032287148 -0.021003649          nan    264.10245   -22692.387   -20201.401
   10400        0.104    296.43862    6.1725496  0.037877709 0.00053701446 -0.022352014 -0.022696861          nan    264.81362    -22690.78   -20703.214
   10450       0.1045    301.90898    6.2215428  0.050334818  0.035535801 -0.025092915 -0.0027463542          nan    269.70039   -22693.331   -21024.711
   10500        0.105    289.81909    6.1666042 -0.047461806 -0.020968166 -0.022352365 -0.022707992          nan    258.90028   -22680.204   -20327.247
   10550       0.1055    297.28249    6.2427099 -0.022122605 -0.021685414 0.0021871497  0.023876671          nan    265.56746   -22684.519   -20663.006
   10600        0.106    294.86214    6.2574167 0.0015551203  0.004862178 -0.022326808 -0.022676069          nan    263.40532   -22679.999   -20879.447
   10650       0.1065    293.82594    6.2850936  0.018149012  0.019996262 -0.025091003 0.0023898052          nan    262.47967   -22676.708   -21077.463
   10700        0.107    301.60993     6.351367  0.029743175   0.05776544 -0.022285667 -0.022653184          nan    269.43324   -22681.288   -21462.919
   10750       0.1075    297.42514    6.3238026 -0.052755787 -0.026550634 -0.033888102 -0.038997191          nan    265.69489   -22675.159   -20814.987
   10800        0.108    298.32844    6.3674917  -0.02448753 -0.0051942687 -0.022299315 -0.022653091          nan    266.50183   -22673.573   -21126.033
   10850       0.1085    297.20493    6.4166327   0.03997528   0.03842438 -0.032839839 -0.014784269          nan    265.49818   -22670.163   -21650.108
   10900        0.109    295.19912    6.4293999  0.020307904  0.011443312 -0.022255931 -0.022616713          nan    263.70635   -22665.959    -21537.17
   10950       0.1095     297.8457    6.4353904 0.00099600283 -0.019953512 -0.035826082 -0.011555472          nan    266.07058   -22665.899    -21388.11
   11000         0.11    294.68358     6.438273  -0.02960918 -0.056026898 -0.022267925 -0.022637369          nan    263.24581   -22660.646   -21175.457
   11050       0.1105    297.76137    6.4985978  0.032392313 -0.014532879 -0.035859151 0.0085897815          nan    265.99525    -22660.97   -21721.524
   11100        0.111    296.40139    6.5368788  0.025058598  0.047929672 -0.022211905 -0.022579214          nan    264.78036   -22657.307    -22032.89
   11150       0.1115    293.63936     6.554248 0.0032120525 -0.0016087439 -0.042766426 -0.011430618          nan    262.31299   -22652.385   -21852.838
   11200        0.112       296.52    6.5809207 -0.0075178127 -0.026474607 -0.022215609 -0.022603338          nan    264.88632   -22652.486   -21823.094
   11250       0.1125    296.51732    6.6110981 -0.026645169 0.0045476691  -0.02977473 -0.025814042          nan    264.88392   -22649.999   -21963.335
   11300        0.113    297.24801     6.661644 -0.010962074  0.019419913 -0.022187491  -0.02257864          nan    265.53666   -22648.154   -22233.673
   11350       0.1135    293.82621    6.6636187 0.0077955833  0.018018276 -0.010510371 -0.011850438          nan     262.4799   -22642.604   -22298.109
   11400        0.114    296.39939    6.6945313 -0.002300567  0.027601894  -0.02216905 -0.022540921          nan    264.77857   -22642.402   -22399.442
   11450       0.1145    294.89901    6.7053871 -0.020369208 -0.0032188678 -0.039408986 -0.015005852          nan    263.43826    -22638.55   -22272.663
   11500        0.115    296.64902    6.7132696 -0.0032141555 -0.028592312 -0.022159974 -0.022550362          nan    265.00157   -22637.597   -22271.544
   11550       0.1155    295.52185    6.7633281 0.0024248757 -0.019024745 -0.025561125 -0.035756761          nan    263.99465   -22634.055   -22489.094
   11600        0.116     293.8003    6.7596425  0.045445559   -0.0128567 -0.022117784 -0.022494338          nan    262.45676   -22629.986   -22640.771
   11650       0.1165    298.39421    6.8205876  0.049285344  0.030588329 -0.024580042 -0.026357799          nan    266.56058   -22631.548   -23001.538
   11700        0.117    299.34894    6.8221574 -0.0014667885 0.0015553246 -0.022127464 -0.022513826          nan    267.41346   -22629.845    -22740.82
   11750       0.1175    294.47308    6.8076976 -0.049385551 -0.057789313 -0.074423978 -0.029248507          nan    263.05777   -22622.927   -22335.076
   11800        0.118    290.66048     6.852604 -0.016125244 -0.00031489953 -0.022081473 -0.022477484          nan    259.65191   -22616.965   -22787.213
   11850       0.1185    298.47536    6.9583493  0.053161108  0.071936968 -0.0034579125 -0.025146932          nan    266.63307   -22621.342   -23611.491
   11900        0.119    290.99223    6.9153911 -0.010773534 0.0021420123 -0.022054791  -0.02246262          nan    259.94827   -22612.062   -23022.532
   11950       0.1195    296.33932    6.9606968 -0.026768059 -0.034951109 -0.031605169 -0.043108854          nan    264.72491   -22614.219   -22996.592
   12000         0.12    296.05397     6.972809 -0.0026698877 -0.00077507812 -0.022055575 -0.022467289          nan       264.47   -22611.338   -23231.214
   12050       0.1205    295.78859    6.9961235  0.012911466  0.016268464  0.001621319 0.00054449807          nan    264.23293   -22608.486   -23417.678
   12100        0.121    299.06258    7.0502307  0.019043281  0.056879627 -0.022022148 -0.022430546          nan    267.15765   -22608.776   -23753.845
   12150       0.1215    298.44652    7.0801195 -0.037518298 -0.0059473823 -0.031794205 -0.0094553969          nan    266.60731   -22605.587   -23455.513
   12200        0.122    297.18855    7.0727403 -0.020358285 -0.011587484 -0.022015362 -0.022439176          nan    265.48354   -22601.812   -23469.315
   12250       0.1225    294.92073    7.0685227  0.031687012  0.016602594 0.0096817812 0.0053881222          nan    263.45766   -22597.136   -23722.708
   12300        0.123    294.74013     7.097788  0.039592737  0.010133434 -0.021977651 -0.022381567          nan    263.29633   -22594.317   -23825.047
   12350       0.1235    294.94504    7.1128871 0.0074399489 -0.025078254 -0.026924654 -0.026517388          nan    263.47938   -22591.833   -23650.829
   12400        0.124    297.62285    7.1587963  0.022789128 -0.029174791  -0.02196928 -0.022393797          nan    265.87151   -22591.545   -23841.369
   12450       0.1245    293.60771    7.1669224 0.0074776599  -0.02362442  0.017758172 -0.011010113          nan    262.28472   -22585.276   -23835.919
   12500        0.125     294.6897    7.1630012  0.015632608  0.016713473 -0.021939183 -0.022352113          nan    263.25128   -22583.564   -23984.491
   12550       0.1255     293.7757    7.1794375 -0.013656876  0.013182888 -0.024091598 -0.050260685          nan    262.43479   -22580.048   -23929.878
   12600        0.126    293.08651    7.2436926 -0.018512039   0.02144563  -0.02192206 -0.022359308          nan    261.81912   -22576.707   -24155.421
   12650       0.1265     292.9545    7.2763971 0.0054474076 -0.005825877  0.018975522 -0.0028520193          nan    261.70119   -22573.857   -24253.395
   12700        0.127    294.22414    7.2800533 -0.031497123 -0.0032835147  -0.02191531 -0.022355666          nan    262.83538   -22572.258   -24150.909
   12750       0.1275    294.49498    7.3125651 -0.0042177231 -0.011656207 -0.027748048 -0.054384793          nan    263.07733   -22569.763   -24322.304
   12800        0.128    295.91408    7.3409003  0.024336586  0.038392235 -0.021875848 -0.022314263          nan    264.34504    -22568.28   -24678.764
   12850       0.1285    290.87239    7.3176567 -0.010641674 -0.022277556 -0.0067597254  0.027353979          nan    259.84121    -22561.03   -24282.458
   12900        0.129     297.2179    7.3951182 -0.0035885565 -0.0042690811 -0.021871693 -0.022308884          nan    265.50976   -22563.929   -24624.202
   12950       0.1295    294.65583    7.3943756 0.0080566793 -0.020448497 -0.077253023 -0.051592089          nan    263.22102   -22558.863   -24606.613
   13000         0.13    292.53119    7.4041196 -0.013392545  0.012035161 -0.021830832 -0.022282109          nan    261.32304   -22554.201   -24675.874
   13050       0.1305    297.74497    7.4643627 0.0075350298  0.066217479 -0.039196923 -0.027587858          nan     265.9806   -22556.071   -25127.051
   13100        0.131    291.63041    7.4406147 -0.0020396625 -0.017730793 -0.021815304 -0.022270007          nan    260.51837   -22547.825   -24736.147
   13150       0.1315    293.07727    7.4801456 -0.025704636 -0.023034393 -0.012892119 -0.014840162          nan    261.81087   -22546.313   -24771.355
   13200        0.132    295.94746    7.5001719  0.011707205  0.008922722 -0.021793008 -0.022243475          nan    264.37486    -22546.06   -25069.339
   13250       0.1325    288.48948    7.5174695 -0.0052019262 -0.020566759 -0.0065745196   0.01850475          nan    257.71252   -22536.587   -24972.336
   13300        0.133    293.15536    7.5687562  0.065035697 0.0042628251 -0.021741207 -0.022202789          nan    261.88063   -22537.907   -25460.182
   13350       0.1335    294.23752    7.5717552  0.042503701 -0.010259702 0.0013045463   0.00247217          nan    262.84734   -22536.044   -25346.664
   13400        0.134    290.28317    7.5439035 -0.024716601 -0.067046631 -0.021755612 -0.022229076          nan    259.31485   -22529.673   -24840.468
   13450       0.1345    290.92793    7.5812749 -0.012845559 -0.041183927 -0.0048996733 -0.043808608          nan    259.89083   -22527.413   -25090.818
   13500        0.135    291.32867    7.6356138  0.023276918 0.0059053022  -0.02171361 -0.022180655          nan    260.24881   -22524.926    -25549.32
   13550       0.1355    294.00392     7.652227  0.019414199   0.05161345 0.0065349673 -0.026292779          nan    262.63866   -22524.439   -25744.182
   13600        0.136    294.88249    7.6476834 -0.014796458  0.011513021 -0.021713814  -0.02219067          nan     263.4235   -22522.343   -25481.333
   13650       0.1365     294.0604    7.6497926 -0.070550162 0.0012345707 -0.041714072 -0.024858112          nan    262.68911   -22518.724   -25268.257
   13700        0.137    293.89605    7.6570269  -0.05005951  0.022747865 -0.021674088 -0.022165062          nan     262.5423   -22515.714   -25432.384
   13750       0.1375    290.14534    7.6787441 -0.00067679158  0.044815067 -0.042321082  0.018985096          nan    259.19172   -22509.513   -25742.941
   13800        0.138    288.75226    7.6826753  0.026910678  0.028673142 -0.021625897 -0.022089226          nan    257.94726    -22505.39   -25794.197
   13850       0.1385    292.52418    7.7141569  0.018490275 -0.024841704 -0.050612442 -0.036121589          nan    261.31678   -22505.862   -25692.685
   13900        0.139    293.30152    7.6781311 -0.010780338 -0.047368452 -0.021639551  -0.02211847          nan     262.0112   -22503.637   -25399.941
   13950       0.1395     291.9536     7.711752  0.012193307 -0.011030103 -0.039931864   -0.0312031          nan    260.80707   -22499.536   -25709.717
   14000         0.14     291.4108    7.7690803    0.0218621  0.056092387 -0.021586138 -0.022061578          nan    260.32218   -22496.121   -26156.783
   14050       0.1405    295.28589     7.823112  0.025723195  0.022614282  0.021409007 -0.025428831          nan    263.78387   -22496.653   -26238.165
   14100        0.141    293.23286    7.7798242 -0.026811373 -0.055683363 -0.021609875 -0.022085565          nan    261.94986    -22491.87   -25657.765
   14150       0.1415    288.62122    7.7819928 -0.050466451 -0.042912123 -0.014332885  -0.05361163          nan     257.8302   -22484.822   -25628.714
   14200        0.142     290.6879    7.8638476  0.050267189  0.023499378  -0.02153577 -0.022016484          nan     259.6764   -22483.724   -26458.714
   14250       0.1425     290.7588    7.8974955  0.039524747  0.044864766 -0.015789987 -0.010814096          nan    259.73974   -22480.819   -26606.283
   14300        0.143    290.49929    7.8643036 -0.017125579 -0.010667569 -0.021526579 -0.022033623          nan    259.50791   -22477.629   -26121.702
   14350       0.1435     291.6346    7.8823146 -0.020504342 -0.059263446 -0.072208713  -0.03884929          nan     260.5221   -22475.661   -26008.489
   14400        0.144    292.96853    7.9276076 -0.017755623 0.0061107435  -0.02151047 -0.022012014          nan    261.71373   -22473.879   -26386.542
   14450       0.1445    293.90158    7.9492826  0.039718238  0.057504335 -0.015540691 -0.034117322          nan    262.54724   -22471.724   -26821.684
   14500        0.145    290.66347    7.9371476  0.026290807  0.036956844 -0.021463999  -0.02196307          nan    259.65457    -22465.84   -26667.984
   14550       0.1455    286.41374    7.8929189 -0.044381796  -0.06510265 -0.011505679 0.0098158624          nan    255.85822   -22459.057   -25944.782
   14600        0.146     289.6108    7.9534965 -0.048063016 -0.00065363401 -0.021469645 -0.021963372          nan    258.71421   -22458.917   -26349.266
   14650       0.1465    288.93004    7.9886411 -0.0023973253   0.03717726 -0.043998938 -0.00053325485          nan    258.10608   -22455.298   -26744.737
   14700        0.147    292.35925            8  0.036231541  0.049656302 -0.021409985 -0.021908309          nan    261.16945   -22455.349   -26952.959
   14750       0.1475    289.10093    7.9590408 -0.013898297 -0.0077400069 0.00085642997 0.0070729633          nan    258.25874   -22449.435   -26458.008
   14800        0.148    286.50514    7.9379335 -0.055245835 -0.022473319 -0.021424643 -0.021931306          nan    255.93987   -22444.108   -26200.715
   14850       0.1485    290.30468    7.9880813 0.0082192861 -0.010271872  0.004831871 -0.0081455633          nan    259.33407   -22444.483   -26620.096
   14900        0.149    289.76187    7.9823206  0.028590785 0.0018129954 -0.021370071 -0.021870309          nan    258.84916   -22440.975   -26709.081
   14950       0.1495    287.02215    7.9569833  0.025679307 -0.011448932 0.0074832162 -0.012048994          nan    256.40172    -22435.51   -26570.712
   15000         0.15    286.64011    7.8998013 -0.0014300613 -0.040457421 -0.021368103 -0.021856153          nan    256.06044    -22432.16   -26193.046
   15050       0.1505    287.12861     7.853488 -0.012862347 -0.010203755  -0.04541699 -0.044796171          nan    256.49683   -22429.608   -26101.406
   15100        0.151    290.73093    7.8277531  0.016412554   0.03045508 -0.021325004 -0.021817314          nan    259.71484   -22429.848   -26248.736
   15150       0.1515    297.47807    7.7498197  0.046617728 -0.016075336 -0.031531355 -0.0017630931          nan    265.74218   -22432.931    -25934.54
   15200        0.152    298.05194    7.5657749 -0.010824981 -0.038100858 -0.021349588 -0.021832644          nan    266.25483   -22430.556   -25056.164
   15250       0.1525    299.54449    7.3938292 -0.025285874 0.0017161319 -0.028735545 -0.034585913          nan    267.58815   -22429.071   -24567.532
   15300        0.153    300.98747    7.1601028  0.047057515  0.028303791 -0.021287678  -0.02175583          nan    268.87718   -22427.628   -24118.214
   15350       0.1535    310.39201     6.888042  0.063536847  0.061977152 -0.028466085   -0.0334785          nan    277.27841   -22433.439    -23378.52
   15400        0.154    314.67146    6.4979756 -0.012496204 -0.056318759 -0.021331598 -0.021778354          nan    281.10132   -22434.844   -21430.536
   15450       0.1545    327.24075     6.106468 -0.018855626 -0.049710048 -0.0058476955 -0.023484404          nan    292.32968   -22443.858   -20126.341
   15500        0.155    334.59841    5.6925948  0.010586238 0.00070186307 -0.021341662 -0.021762974          nan     298.9024   -22448.491   -19012.943
   15550       0.1555    349.31948    5.2244488  0.072064551  0.031236145 -0.044121176 -0.029406897          nan    312.05298   -22460.039   -17759.165
   15600        0.156     355.3336    4.7600565  0.044606313 -0.0016305111 -0.021367562 -0.021760052          nan     317.4255   -22464.197   -16010.108
   15650       0.1565    363.47722    4.2966342 -0.002745487 -0.070271172  0.037945177  0.015167013          nan    324.70033   -22470.653   -14078.725
   15700        0.157    368.61477    3.8993044  0.013338811 -0.016097132 -0.021459237 -0.021811545          nan    329.28979   -22474.771   -12988.487
   15750       0.1575    369.41292    3.5104797  0.015809887  0.068616328 -0.024592727 -0.024148129          nan    330.00279   -22475.308    -11983.02
   15800        0.158    375.30828    3.1087533  0.023732088  0.074296379 -0.021548064 -0.021850637          nan    335.26922    -22480.67   -10689.273
   15850       0.1585    377.76992     2.714652 -0.078490557   0.03643966   -0.0154791 -0.002583823          nan    337.46824   -22483.165   -8908.6704
   15900        0.159    376.48192    2.5219164  -0.13185484 -0.010023048 -0.021708669  -0.02196933          nan    336.31765   -22482.355   -7933.4618
   15950       0.1595    380.93366    2.4002567   0.04042512  0.014181532 -0.047587834 -0.019849198          nan    340.29447   -22486.734   -8182.8778
   16000         0.16    375.42356    2.2150486   0.11495709  0.028577692 -0.021727337 -0.021918189          nan     335.3722   -22482.226   -7861.9445
   16050       0.1605    384.21577    2.0661152  0.025885535 -0.0010954844 -0.059523124 0.0024816574          nan    343.22643   -22490.605   -6969.6841
   16100        0.161    382.06102    1.8941556 -0.029935343 -0.081797895 -0.021860695 -0.022041698          nan    341.30155   -22489.203    -5941.408
   16150       0.1615    384.10512    1.8174558  0.026064013 -0.0099060132 -0.038142433  -0.04979421          nan    343.12758   -22491.672   -6112.0459
   16200        0.162    384.47271    1.7367083  0.037526137  0.045268797 -0.021894352 -0.022045953          nan    343.45595   -22492.749   -6065.0107
   16250       0.1625    385.04187    1.6995017 -0.023643905  0.010577643 -0.010144185 -0.037439248          nan    343.96439   -22494.064   -5621.4516
   16300        0.163    388.14448    1.6993474 -0.079658137 -0.0038421661 -0.021963343 -0.022131638          nan    346.73601    -22497.67    -5386.157
   16350       0.1635    391.99377    1.7149367 0.0041808273 -0.034294332  -0.01177331 -0.015002317          nan    350.17464   -22502.001   -5616.0775
   16400        0.164    395.09251    1.6855153  0.073030563  0.068483477 -0.021935194 -0.022104689          nan    352.94281   -22505.711   -6090.0979
   16450       0.1645    389.52753    1.6229367 -0.026757925 -0.0033455374 0.0063039663  -0.08766158          nan    347.97151   -22501.733   -5309.4441
   16500        0.165    392.07354    1.5645568 -0.057103367  0.025753812 -0.021997186 -0.022165618          nan     350.2459   -22505.017    -5110.691
   16550       0.1655    394.46555    1.6218289 -0.027663951 0.0043644653 -0.00016012647 -0.0043302282          nan    352.38273    -22508.17   -5328.4315
   16600        0.166    392.60842    1.6927813 -0.022761615   0.02122733 -0.021981188 -0.022147925          nan    350.72373   -22507.523   -5637.4901
   16650       0.1665    395.53237    1.8055204  0.051080321  0.034375335 -0.024252476 -0.023118139          nan    353.33574   -22511.128   -6303.2535
   16700        0.167      395.153    1.7707006  0.048984847  0.022584508 -0.021989699 -0.022153188          nan    352.99684   -22511.796   -6140.8999
   16750       0.1675    396.17518    1.7054824 -0.039500866 -0.024085014 -0.026762125 -0.0076291457          nan    353.90997   -22513.727   -5472.9883
   16800        0.168    389.67323    1.6989832   -0.0849006 -0.056388829 -0.022036195 -0.022207684          nan    348.10167   -22508.929   -5192.3127
   16850       0.1685    397.34189    1.7582293 -0.00029760606  0.093829854 -0.0024417422 -0.069089314          nan    354.95221   -22516.844   -6172.5386
   16900        0.169    391.89852    1.8392689  0.021581336  0.037471997 -0.021980541 -0.022154614          nan    350.08956    -22513.07   -6327.7406
   16950       0.1695     396.1292    1.7995122 -0.032150481 0.0044032173 -0.080108347 -0.029047714          nan     353.8689   -22517.915   -5905.8831
   17000         0.17    400.59785    1.7555823  0.022742241  -0.02380874 -0.022011561 -0.022185499          nan    357.86082   -22522.965   -5848.3859
   17050       0.1705    398.90313    1.7254575  0.038777737 -0.034720387 -0.006537924 -0.031716793          nan    356.34689   -22522.526   -5765.0495
   17100        0.171    398.76299    1.7279209 -0.021446827 0.0032208425 -0.022030089 -0.022200612          nan     356.2217   -22523.504    -5698.983
   17150       0.1715    398.13241    1.6687542  0.027875407   0.03073286 -0.0062775182 -0.022594184          nan    355.65839   -22524.069   -5757.8747
   17200        0.172    394.43559    1.6565309 -0.017436251  0.024942964 -0.022043725 -0.022198643          nan    352.35596   -22521.901   -5546.7922
   17250       0.1725    402.09926    1.6763526 -0.019804257  0.049306872 0.0076047148 -0.0080456631          nan    359.20205   -22529.896   -5686.1841
   17300        0.173    398.26906    1.5680766 -0.029838546  0.029934548 -0.022093538 -0.022230415          nan    355.78046   -22527.627    -5227.242
   17350       0.1735    394.90819    1.5142694 -0.062088489  0.020855484 -0.067146435  -0.02957462          nan    352.77814   -22525.859   -4910.1212
   17400        0.174    401.52169    1.5337286  0.043584562 -0.029430199 -0.022099325 -0.022247227          nan    358.68609   -22532.963     -5159.61
   17450       0.1745    406.97001    1.5486535  0.058863393 -0.0085530688 -0.085916309 -0.035486317          nan    363.55318   -22538.988   -5329.8794
   17500        0.175    397.84795     1.533348  0.020708208  0.022944204 -0.022119332 -0.022230035          nan    355.40428   -22532.054   -5256.6681
   17550       0.1755     399.2178    1.4876212  0.044015129 -0.024268781  -0.02304806  0.012829984          nan      356.628   -22534.492   -5024.5585
   17600        0.176    403.36423    1.4685605  0.024656215 -0.0090536755 -0.022156526 -0.022287694          nan    360.33207   -22539.409   -4947.2101
   17650       0.1765    398.42297    1.4521946 -0.063278589 -0.036599979 0.0090305902 -0.0065379532          nan    355.91796   -22536.232   -4507.7202
   17700        0.177    398.86731    1.4943303  0.013047831  0.016907347 -0.022132195 -0.022267738          nan     356.3149   -22537.855   -5080.9515
   17750       0.1775    401.68618    1.4913261  0.067798979   0.10237101 -0.0098587502 -0.079417971          nan    358.83303   -22541.609   -5538.3203
   17800        0.178    395.81289    1.4569681 -0.0082520029 -0.024561112  -0.02217095 -0.022298282          nan    353.58633    -22537.63   -4747.1834
   17850       0.1785    395.67966    1.3873598 -0.013466828  -0.10108806 -0.022241032 -0.031586234          nan    353.46731   -22538.726   -4242.6831
   17900        0.179    395.62514    1.4386352 -0.027731464 -0.014570421 -0.022185575 -0.022325373          nan    353.41861   -22539.912   -4654.4442
   17950       0.1795    394.54812    1.4948823  0.048411908  0.069021338 -0.0083949496 -0.0077173298          nan    352.45649   -22540.152   -5374.3852
   18000         0.18    399.22127    1.4866673  0.027718992   0.01757213 -0.022155261  -0.02229648          nan    356.63109   -22545.551    -5106.528
   18050       0.1805    397.58542    1.4074578 -0.048225123 0.0081853242 -0.042961225  0.021026186          nan    355.16976   -22545.297   -4558.0601
   18100        0.181    394.33455    1.3830889 -0.026886787 -0.0069466518 -0.022217623 -0.022328805          nan     352.2657   -22543.614   -4497.5184
   18150       0.1815    398.37842    1.3981841    0.0327587 0.0067723351 -0.026418965 -0.048289675          nan    355.87816   -22548.449   -4792.3837
   18200        0.182    392.51968    1.4399454 0.0081682388 -0.068047851 -0.022197873 -0.022332618          nan    350.64445   -22544.435   -4600.2193
   18250       0.1825     398.6401     1.458477  0.047919526  0.028171495 -0.006060423 -0.027534314          nan    356.11192   -22551.103   -5115.2268
   18300        0.183    391.01128    1.4553953  -0.02796104  0.054949077 -0.022192246 -0.022321811          nan    349.29697   -22545.481   -4941.2778
   18350       0.1835    393.66159     1.439493 -0.047413482 0.0017328556 -0.010643478 -0.009211122          nan    351.66453   -22549.009   -4646.0414
   18400        0.184    388.95954      1.39404 -0.019367082 0.0070084999 -0.022219166 -0.022339283          nan    347.46411    -22545.99   -4605.6047
   18450       0.1845    391.57713    1.4318708 -0.0034201163 0.0033009616 -0.030853815 -0.045616422          nan    349.80246   -22549.503   -4772.5056
   18500        0.185    389.44709    1.3953486   0.03650524 -0.024219432 -0.022205768 -0.022337893          nan    347.89965   -22548.761   -4692.1146
   18550       0.1855    393.81558    1.4031904  0.022439323 -0.0032283624 -0.030815362 -0.030734195          nan    351.80209    -22553.84    -4741.338
   18600        0.186    392.42886    1.3986356 -0.0040093531  0.013567801 -0.022226596 -0.022354072          nan    350.56332   -22553.775     -4693.98
   18650       0.1865    394.20238    1.3629492 -0.039317944 -0.0027711603 -0.014765702 -0.048570964          nan    352.14763    -22556.54   -4402.8669
   18700        0.187    387.24341    1.4240971 -0.017168752 -0.023385227 -0.022213309 -0.022358954          nan    345.93107   -22551.494   -4611.8105
   18750       0.1875    394.93958    1.5097344  0.013494518  0.061687038 -0.075500396 -0.038057268          nan    352.80618    -22559.51   -5283.0531
   18800        0.188     393.3827    1.4978211  0.034726502  0.045367404 -0.022201361 -0.022333043          nan     351.4154   -22559.287   -5259.7165
   18850       0.1885     392.8799    1.4256763 -0.027676304 0.0046474514 -0.001050272 -0.049356807          nan    350.96624    -22560.02   -4675.4915
   18900        0.189     393.3354    1.3555611  0.013657044 -0.062259619 -0.022277322 -0.022400517          nan    351.37314   -22561.579   -4356.5283
   18950       0.1895    391.40318    1.3685601 -0.023391762 -0.015021984 -0.027030107 -0.011061549          nan    349.64706    -22561.03   -4433.8213
   19000         0.19    395.24929    1.3664655  0.024363821  0.021590514  -0.02227793 -0.022378684          nan    353.08285    -22565.66    -4708.066
   19050       0.1905    386.67635    1.3173922  0.041574728  0.018483682 -0.024527689 -0.0026847374          nan    345.42451   -22559.201    -4591.502
   19100        0.191    393.58212    1.2799425 -0.0080193603 -0.053990483 -0.022312514 -0.022407339          nan    351.59354   -22566.572   -4059.7756
   19150       0.1915    393.53923    1.2405492 -0.040479773 -0.0099716341 -0.027712953  -0.02234645          nan    351.55523   -22567.734   -3966.9928
   19200        0.192    392.30508    1.2554616 -0.024221646  0.035639307 -0.022283506 -0.022407184          nan    350.45274   -22567.839   -4222.9308
   19250       0.1925    393.99002    1.3564542 -0.015325606   0.10413797  -0.05575027 -0.0036507081          nan    351.95793   -22570.567   -4817.5553
   19300        0.193    393.68692    1.3312268  0.028216406  0.048747502 -0.022304303 -0.022404748          nan    351.68716   -22571.566   -4693.9689
   19350       0.1935     386.8148    1.2955111 -0.030175014  -0.10014279  0.015193015  0.008901347          nan    345.54818    -22566.57   -3883.9775
   19400        0.194    396.03269    1.3585527 -0.011363802 -0.016982834 -0.022324868 -0.022438881          nan    353.78268   -22575.966   -4434.0202
   19450       0.1945    390.27147     1.387284  0.029374774 -0.0047448568   0.04113351  -0.01050708          nan    348.63609    -22571.99   -4706.3798
   19500        0.195    394.13428    1.4226049   0.12127652 0.0040247441 -0.022278838  -0.02240329          nan     352.0868   -22576.602   -5159.6873
   19550       0.1955    391.92528    1.3436539  0.073998943 -0.029582169  0.014870889 -0.0048618161          nan    350.11346   -22575.854   -4626.9022
   19600        0.196    392.97631    1.2916053  -0.02774753 -0.078605297 -0.022366381 -0.022486525          nan    351.05237   -22578.015   -3950.8416
   19650       0.1965    394.75876    1.3392753 -0.090597307   0.04906128 -0.032114422 -0.024271577          nan    352.64465   -22580.738   -4325.7975
   19700        0.197    387.05513    1.3901872 -0.060708061   0.11649728 -0.022296762 -0.022441763          nan    345.76287    -22574.98   -4819.9213
   19750       0.1975    386.91418    1.3817974  0.045952869   0.05769473 -0.031123898 -0.011959444          nan    345.63696   -22576.012   -4951.4832
   19800        0.198     387.5193    1.3246187  0.005480054 0.0070825892 -0.022323117 -0.022435823          nan    346.17753   -22577.721   -4457.2712
   19850       0.1985    388.56334    1.2948145 -0.016916325 -0.086228684  0.015093105 -0.029053233          nan    347.11019   -22579.772   -3972.2317
   19900        0.199    389.45843    1.3108945 -0.048736236 0.0067739814 -0.022347788 -0.022474426          nan    347.90978   -22581.718   -4229.7741
   19950       0.1995    386.87487     1.329797  0.024628871  0.044053469  0.019399454 -0.0012369292          nan    345.60184   -22580.562   -4661.5978
   20000          0.2    386.11333    1.3084429  0.064872239  0.032070004 -0.022334403 -0.022423881          nan    344.92155   -22581.036   -4684.6172
Loop time of 1759.91 on 4 procs for 20000 steps with 6912 atoms

Pair  time (%) = 1637.19 (93.027)
Neigh time (%) = 0.885818 (0.0503331)
Comm  time (%) = 64.1906 (3.64738)
Outpt time (%) = 0.358243 (0.0203558)
Other time (%) = 57.2847 (3.25497)

######################################
# SIMULATION DONE
print "All done"
All done
