# ----------------------- ATOM DEFINITION ----------------------------
lattice		fcc 4.05
Lattice spacing in x,y,z = 4.05 4.05 4.05
region		whole block 0 14 0 14 0 14
create_box	1 whole
Created orthogonal box = (0 0 0) to (56.7 56.7 56.7)
lattice 	fcc 4.05 orient x 1 0 0 orient y 0 1 0 orient z 0 0 1
Lattice spacing in x,y,z = 4.05 4.05 4.05
create_atoms	1 region whole
Created 10976 atoms

# ------------------------ FORCE FIELDS ------------------------------

#****************USE THIS TO TEST******************
pair_style	eam/rad
pair_coeff 		* * Al99.PC0.05.eam.alloy.rad.txt Al # pc = 0.5   error generating

# to test with error = 0 use this potential
# pair_coeff	* * Al99.eam.alloy.005pcrad_NULL_noerror Al

#****************USE THIS TO RUN REFRENCE***********
# pair_style	eam/alloy
# pair_coeff	* * Al99.eam.alloy Al

# ------------------------- SETTINGS ---------------------------------
compute csym all centro/atom fcc
compute peratom all pe/atom

######################################
# EQUILIBRATION
reset_timestep	0
timestep	0.001 # default
# timestep	0.0001 # tiny time step
velocity all create 300 12345 mom yes rot no
fix 1 all npt temp 300 300 1 iso 0 0 1 drag 1

# Set thermo output
thermo 50
# thermo 1 # debug mode

# thermo_style custom step lx ly lz press pxx pyy pzz pe temp
# IMPLEMENTATION HERE

# VERSION add rad variables .v1 .v2
# thermo_style custom step lx ly lz press pxx pyy pzz pxxrad pyyrad pzzrad pe temp

# VERSION ublb separation .v3
thermo_style custom step lx ly lz press pxx pxxrad pyy pyyrad pzz pzzrad pe temp

# Run for at least 10 picosecond (assuming 1 fs timestep)
run 	20000 # default
Step Lx Ly Lz Press Pxx Pxxrad Pyy Pyyrad Pzz Pzzrad PotEng Temp
0         56.7         56.7         56.7    2496.5196    2454.4963    242.99145    2519.8171    242.99145    2515.2453     485.9829    -36879.36          300
Averages over the last 201 of 401 rows, steps 10000 to 20000:
Lx Ly Lz Press Pxx Pxxrad Pyy Pyyrad Pzz Pzzrad PotEng Temp
56.8876 56.8876 56.8876 -2.23124 -26.8737 239.631 -1.34134 220.334 21.5213 479.452 -36493.9 272.854
Loop time of 2268.6 on 4 procs for 20000 steps with 10976 atoms

Pair  time (%) = 2133.34 (94.0376)
Neigh time (%) = 0 (0)
Comm  time (%) = 90.9722 (4.01005)
Outpt time (%) = 0.674216 (0.0297194)
Other time (%) = 43.6172 (1.92265)

# run 	200000

# Use this if debug
# run 	1000
# run 200
unfix 1

# Store final cell length for strain calculations
variable tmp equal "lx"
variable L0 equal 56.9072358451624
Initial Length, L0: 56.9072358451624

######################################
# DEFORMATION
reset_timestep	0
set atom * xrad 0 yrad 0 zrad 0 vxrad 0 vyrad 0 vzrad 0
  10976 settings made for xrad
  10976 settings made for yrad
  10976 settings made for zrad
  10976 settings made for vxrad
  10976 settings made for vyrad
  10976 settings made for vzrad
fix		1 all npt temp 300 300 1 y 0 0 1 z 0 0 1 drag 1

variable srate equal 1.0e10
# variable srate equal 1.0e9 # tiny time step

variable srate1 equal "v_srate / 1.0e12"
fix		2 all deform 1 x erate 0.01 units box remap x

# Output strain and stress info to file
# for units metal, pressure is in [bars] = 100 [kPa] = 1/10000 [GPa]
# p2, p3, p4 are in GPa
variable strain equal "(lx - v_L0)/v_L0"
variable p1 equal "v_strain"
variable p2 equal "-pxx/10000"
variable p3 equal "-pyy/10000"
variable p4 equal "-pzz/10000"

# IMPLEMENTATION HERE
variable p5 equal "-pxxrad/10000"

# VERSION add rad variables
variable p6 equal "-pyyrad/10000"
variable p7 equal "-pzzrad/10000"

# VERSION ublb coupled/decoupled scheme
# variable p6 equal "-pxxub/10000"
# variable p7 equal "-pxxlb/10000"

# Use cfg for AtomEye
# dump 		1 all cfg 250 dump.tensile_*.cfg mass type xs ys zs c_csym c_peratom fx fy fz
# dump_modify 1 element Al

# print output to a text file every n timesteps
# dump		2 all custom 50 dump.xyz_rvf_rad.tensile_*.txt mass type id x y z vx vy vz fx fy fz xrad yrad zrad vxrad vyrad vzrad fxrad fyrad fzrad # use for rad developement
# dump		2 all custom 50 dump.xyz_rvf_rad.tensile_*.txt mass type id x y z vx vy vz fx fy fz xrad yrad zrad vxrad vyrad vzrad fxrad fyrad fzrad xub yub zub vxub vyub vzub fxub fyub fzub xlb ylb zlb vxlb vylb vzlb fxlb fylb fzlb # use for ublb developement

# Display thermo
thermo 	50
# thermo 1
# thermo_style	custom step v_strain temp v_p2 v_p3 v_p4 ke pe press

# IMPLEMENTATION HERE
thermo_style	custom step v_strain temp v_p2 v_p3 v_p4 v_p5 v_p6 v_p7 ke pe press
run	20000
Step strain Temp p2 p3 p4 p5 p6 p7 KinEng PotEng Press
       0 1.2485982e-16    295.46089  0.011386783  0.022005685  0.013580132 -0.023931508 -0.023927989          nan    419.14972   -36465.179   -156.57533
      50       0.0005    293.27274  0.057687975 0.0094716523  0.035426005 -0.011244232 0.00050504974          nan    416.04553   -36461.903   -341.95211
     100        0.001    295.32862  0.076317447  0.027763491 0.0067757458 -0.023908526 -0.023910258          nan    418.96207   -36464.588   -369.52228
     150       0.0015    293.83637   0.08997412  -0.01774816 -0.015297265  -0.03515721 -0.041225545          nan    416.84512    -36462.19   -189.76232
     200        0.002    295.05614   0.13183994 -0.018516257  -0.03038331 -0.023894999 -0.023912689          nan    418.57551   -36463.586    -276.4679
     250       0.0025    294.73529   0.20813863   0.02588544  0.013726901 -0.037170518  -0.01304438          nan    418.12035   -36462.748   -825.83657
     300        0.003    294.53211   0.21659017  0.039304955   0.03387894 -0.023849597 -0.023873405          nan    417.83211   -36462.033   -965.91354
     350       0.0035    291.94931   0.22239965 -0.019201956 0.0037376044 -0.040346484 -0.032744898          nan    414.16807   -36457.917   -689.78432
     400        0.004    295.70627   0.25237531 -0.027170251  -0.02392998 -0.023874786  -0.02389824          nan    419.49782   -36462.737   -670.91693
     450       0.0045    292.68531   0.29202952 -0.023491838 -0.010331117 -0.036295929 -0.015166105          nan    415.21219   -36457.917   -860.68854
     500        0.005      292.482   0.35850609  0.019357532   0.01531217 -0.023814465  -0.02384861          nan    414.92376    -36457.05    -1310.586
     550       0.0055    295.92075    0.3867294  0.045450563  0.041480782 -0.022929466 -0.018087443          nan    419.80208   -36461.315   -1578.8692
     600        0.006    292.20901    0.3789053 -0.028725815 -0.011564242 -0.023822642 -0.023866664          nan    414.53649   -36455.415   -1128.7175
     650       0.0065    296.18503   0.39848394 -0.023293402 -0.045250679 0.0010781047  -0.02933818          nan      420.177    -36460.38   -1099.7995
     700        0.007    295.51506   0.46512284 0.0074086378 -0.003844022 -0.023798561 -0.023840156          nan    419.22655   -36458.747   -1562.2915
     750       0.0075    292.64248     0.513846  0.027516936  0.027330985 -0.0063171999 -0.040928255          nan    415.15142   -36453.948   -1895.6464
     800        0.008    296.41895   0.54268207  0.032511559  0.015154699 -0.023757923 -0.023815579          nan    420.50884   -36458.574   -1967.8278
     850       0.0085    292.59701   0.54007776  -0.03363451 -0.015864837 -0.038105151 -0.016318818          nan    415.08692   -36452.399   -1635.2614
     900        0.009    295.07787   0.56016248 -0.033815601 -0.019787595 -0.023777714 -0.023835929          nan    418.60635   -36455.139   -1688.5309
     950       0.0095    297.02455   0.63079113 -0.0017021252  0.014841645 -0.0010923275  0.017244814          nan    421.36797   -36457.105   -2146.4355
    1000         0.01    295.03759   0.66349274   0.02775836  0.037666319 -0.023719784 -0.023786528          nan     418.5492   -36453.478   -2429.7247
    1050       0.0105    294.15311   0.68581031 0.0052588853 -0.00063910556 -0.036394304  -0.05233361          nan    417.29445   -36451.398   -2301.4336
    1100        0.011    295.53332   0.69960463 -0.0017277438 -0.027028374 -0.023733824 -0.023803516          nan    419.25246   -36452.504   -2236.1617
    1150       0.0115    292.66809   0.72355413 -0.020295756 -0.018589432 -0.018187443 -0.027609099          nan    415.18776   -36447.581   -2282.2298
    1200        0.012    294.53672   0.78045285  0.016450376 0.0014808566 -0.023699645 -0.023773905          nan    417.83866    -36449.36   -2661.2803
    1250       0.0125    295.60234   0.81107946  0.016678115  0.029100695 -0.041614668 -0.0030546894          nan    419.35037   -36449.985   -2856.1942
    1300        0.013    294.76048   0.85176015 -0.019984258 -0.016228112 -0.023698322  -0.02377647          nan    418.15609    -36447.89   -2718.4926
    1350       0.0135    298.05156   0.87830813 -0.0024854693 0.0032443436 -0.0099412793 0.0029530125          nan    422.82491   -36451.631   -2930.2233
    1400        0.014    295.09491   0.89336657  0.017964663 -5.2913956e-05 -0.023678429  -0.02375997          nan    418.63053    -36446.51   -3037.5944
    1450       0.0145    298.72412   0.94521544 -0.0040091964  0.016848399 -0.0087773085  0.028923916          nan    423.77903   -36450.715   -3193.5155
    1500        0.015    295.69921    0.9494761 0.0033108082 0.0013225805 -0.023675989 -0.023753281          nan     419.4878   -36445.476    -3180.365
    1550       0.0155    297.77775    1.0064101 -0.010525734 -0.0080838691 -0.042335282 -0.034574322          nan    422.43647   -36447.455   -3292.6683
    1600        0.016    293.46688    1.0384923 -0.0063931646 -0.0080269744 -0.023642549 -0.023736113          nan    416.32095   -36440.358   -3413.5737
    1650       0.0165    295.08776    1.0741857   0.01407183  0.022765425 -0.010609287 -0.012196731          nan    418.62038   -36441.659   -3703.4099
    1700        0.017    295.59899     1.095631 0.0011802077  0.012010819 -0.023629846 -0.023714932          nan    419.34562   -36441.379   -3696.0736
    1750       0.0175    295.02411    1.1106474 -0.0034155846 -0.025584683 -6.8460485e-06 -0.023626759          nan    418.53008   -36439.542   -3605.4905
    1800        0.018    297.01713    1.1336487 -0.015525408 -0.0075209269 -0.023625812 -0.023726513          nan    421.35744   -36441.339   -3702.0079
    1850       0.0185    300.17469    1.2136081   0.01693093  0.009021607 -0.070244108 -0.013580772          nan    425.83685   -36444.763   -4131.8687
    1900        0.019    297.59555    1.2395656  0.016744376  0.027394894 -0.023593507 -0.023694061          nan      422.178   -36440.038   -4279.0163
    1950       0.0195    298.39526    1.2563342  0.016793025  0.013007001 -0.0010777929  -0.03648408          nan     423.3125   -36440.093   -4287.1142
    2000         0.02    295.72362    1.2558001 -0.027208958 -0.021504302 -0.023597278 -0.023698965          nan    419.52242   -36435.211   -4023.6229
    2050       0.0205    296.20355    1.3003895 -0.0047702722 -0.010082862 -0.012160796 -0.022669805          nan    420.20327   -36434.781   -4285.1212
    2100        0.021    298.17352    1.3489254   0.03515663  0.012070137 -0.023572367  -0.02366699          nan    422.99793   -36436.455   -4653.8404
    2150       0.0215    298.76655    1.3873449 0.0049521174  0.016708745 -0.035886758 -0.036013515          nan    423.83922   -36436.162   -4696.6857
    2200        0.022    296.78942    1.3942373 0.0048185234 -0.0076853575 -0.023560435 -0.023671989          nan    421.03441   -36432.205   -4637.9017
    2250       0.0225    297.79753    1.4334741 -0.017478562 -0.0031714277 -0.027489218 -0.015494221          nan    422.46453   -36432.468   -4709.4138
    2300        0.023    296.71425    1.4599895 -0.012727055  0.007527436  -0.02354833 -0.023663104          nan    420.92777   -36429.751   -4849.2995
    2350       0.0235    299.91865    1.5161718  0.010189809 0.0083513142 -0.050385394 -0.028025006          nan    425.47362   -36433.095   -5115.7096
    2400        0.024    296.41066    1.5402632  0.011921529  0.012230047 -0.023518039  -0.02363444          nan    420.49708   -36426.913   -5214.7159
    2450       0.0245    294.47641    1.5593634 -0.00029469463 -0.0050295662   0.01248683 -0.033317459          nan    417.75309   -36422.936   -5180.1305
    2500        0.025     296.3824    1.5864188 0.0076580227 -0.022102143 -0.023519685 -0.023634275          nan      420.457   -36424.396   -5239.9157
    2550       0.0255    298.40447    1.6311695 -0.013509533 -0.00055213534 -0.0048116696 -0.019787602          nan    423.32556   -36426.011   -5390.3596
    2600        0.026    297.53336    1.6582787 -0.0024034006 0.0079950822 -0.023503068  -0.02361782          nan    422.08978   -36423.498   -5546.2344
    2650       0.0265    296.22877    1.6927174  0.014513097 0.0044758221 -0.017308276 -0.037094052          nan    420.23905   -36420.366   -5705.6878
    2700        0.027    299.89762    1.7257787 -0.0030942681 0.00018362703 -0.023490557 -0.023608884          nan    425.44379   -36424.269   -5742.8936
    2750       0.0275    296.25242    1.7438562 -0.0067693971 -0.020017936 -0.018258283 -0.037729632          nan     420.2726   -36417.783   -5723.5628
    2800        0.028    293.55835    1.7801984 0.0019380657 -0.0076005512 -0.023471596 -0.023589309          nan    416.45071    -36412.63   -5915.1197
    2850       0.0285    297.38805    1.8276868  0.011341353   0.03703318 -0.042719405 -0.014883911          nan    421.88363     -36416.7   -6253.5378
    2900        0.029    296.99388    1.8415205  0.002651408  0.008725071 -0.023459982 -0.023589674          nan    421.32445   -36414.779   -6176.3234
    2950       0.0295    300.03077    1.8666835 -0.0061885817  -0.01599127 -0.046062939 -0.043418003          nan    425.63267   -36417.701   -6148.3456
    3000         0.03     295.4089    1.8812164 -0.023511601 -0.015822276 -0.023469671 -0.023592954          nan    419.07596    -36409.75   -6139.6082
    3050       0.0305    298.82807    1.9568431  0.010198316  0.010513971 0.0038782065 -0.020270984          nan    423.92649   -36413.184   -6591.8513
    3100        0.031    298.57971     1.984123  0.025870494  0.024373458 -0.023432607 -0.023555583          nan    423.57417   -36411.407   -6781.2232
    3150       0.0315      298.025    1.9917029 -0.0038943712 0.0020613766  -0.01712624 -0.015447587          nan    422.78724   -36409.184   -6632.8996
    3200        0.032    296.13016    2.0082627 -0.018167159 -0.013668352 -0.023434429 -0.023570463          nan    420.09915   -36405.034   -6588.0906
    3250       0.0325    297.60829    2.0520498 -0.012313552 -0.013485583 -0.024360632 -0.0066241488          nan    422.19608   -36405.665    -6754.169
    3300        0.033    296.55573    2.0983284 0.0064000657  0.012477585 -0.023403977 -0.023539367          nan    420.70288   -36402.676   -7057.3535
    3350       0.0335    299.81609    2.1532699  0.012926841  0.028311754 -0.058604846 -0.020348144          nan    425.32813   -36405.793   -7315.0283
    3400        0.034    297.79124     2.152187  0.020891796 -0.010211016  -0.02339776 -0.023542019          nan    422.45562   -36401.396   -7209.5592
    3450       0.0345    297.81236    2.1828563 -0.021591905 -0.0097306985 -0.024653525 -0.060120787          nan    422.48558   -36399.881    -7171.779
    3500        0.035    296.06219    2.2028845 0.0075319249   -0.0219015  -0.02338987 -0.023531801          nan    420.00273   -36395.838   -7295.0498
    3550       0.0355    297.37389    2.2603959  0.016803231  0.013100034 6.5046535e-05 -0.024868984          nan    421.86355   -36396.127   -7634.3305
    3600        0.036    299.43713    2.2954072 0.0076040796  0.015102887 -0.023370775  -0.02350357          nan    424.79053   -36397.461   -7727.0473
    3650       0.0365    297.84297    2.3049792 0.0073926901 -0.0046095422 -0.040049902 -0.034160648          nan      422.529   -36393.598   -7692.5411
    3700        0.037    295.73127    2.3169778 -0.025382932 -0.0062904616 -0.023378184 -0.023522762          nan    419.53328   -36388.992   -7617.6812
    3750       0.0375    297.51034     2.360122 -0.011084561 -0.0075362714 -0.012331779 -0.029318871          nan    422.05712   -36389.886    -7805.004
    3800        0.038    297.35193    2.4115375 0.00065226265  0.019070338 -0.023348138  -0.02348895          nan    421.83239   -36388.014   -8104.2002
    3850       0.0385    298.83592     2.441704  0.009001401  0.013127951 0.0024467656  -0.01039027          nan    423.93762   -36388.456   -8212.7778
    3900        0.039     297.9173    2.4630382  0.010697079  0.011332473 -0.023333802    -0.023474          nan    422.63444   -36385.477   -8283.5591
    3950       0.0395     297.8866    2.4638378 -0.017720213 -0.015513666 0.0084196534 -0.048484427          nan    422.59089   -36383.743    -8102.013
    4000         0.04    298.12331    2.5152065  0.012088096 -0.026324702 -0.023337025 -0.023471587          nan    422.92669   -36382.361   -8336.5662
    4050       0.0405    296.40878    2.5477278 -0.0043168645 0.0091513426 -0.067031045 -0.013721852          nan    420.49441   -36378.204    -8508.541
    4100        0.041    298.07586    2.5878645  0.027304588  0.012760838 -0.023309021 -0.023448569          nan    422.85939   -36378.825   -8759.7664
    4150       0.0415    298.63843    2.6178587 0.0016368069 -0.0091733425 -0.0067751088 -0.028563825          nan    423.65746   -36377.865   -8701.0738
    4200        0.042    296.44553    2.6199769 -0.015159974 -0.011667142 -0.023313202 -0.023463435          nan    420.54655   -36372.983   -8643.8326
    4250       0.0425    296.42953    2.6626663  -0.01192456 -0.0072731186 -0.056703775 0.0083434089          nan    420.52386   -36371.177   -8811.5621
    4300        0.043    301.97413    2.7255388  0.013947085  0.028142669 -0.023275325 -0.023426839          nan    428.38959   -36377.234   -9225.4284
    4350       0.0435    298.39985    2.7404664  0.020400413  0.024963091 -0.059482246 -0.023541874          nan      423.319   -36370.344   -9286.0996
    4400        0.044    301.33226    2.7593873 -0.013855316 0.0022110933  -0.02328362 -0.023435354          nan    427.47902   -36372.675   -9159.1436
    4450       0.0445    296.16866    2.7785272 -0.0051080635 -0.029531735 -0.063665706 -0.049567246          nan    420.15378   -36363.501   -9146.2912
    4500        0.045    296.21866    2.8174888 -0.0076462566 0.00078892807 -0.023264459 -0.023420216          nan     420.2247    -36361.71   -9368.7717
    4550       0.0455    299.60284    2.8707694  0.017453135  0.028200989 -0.030246369 -0.012251135          nan     425.0256    -36364.62   -9721.4118
    4600        0.046     295.9788    2.8876599 0.0075118819 0.0020293787 -0.023243122 -0.023397881          nan    419.88443   -36357.572   -9657.3372
    4650       0.0465    299.90628    2.9046027 0.0094600367 -0.0081379392 -0.034280397 -0.014683303          nan    425.45607   -36361.226   -9686.4159
    4700        0.047    298.07171    2.9284219 -0.016103055 -0.042188561 -0.023250946 -0.023408614          nan    422.85349   -36356.691   -9567.1009
    4750       0.0475    300.39885    2.9812772  0.016407858  0.012676628 0.0082840792   0.00515268          nan    426.15484   -36358.051   -10034.539
    4800        0.048     298.8377    3.0230052  0.023643683  0.023577587 -0.023214525 -0.023373618          nan    423.94015   -36353.869   -10234.088
    4850       0.0485    295.34943    3.0374919 -0.013497538 -0.0024850348 -0.024882042 -0.0084787818          nan    418.99159    -36346.94   -10071.698
    4900        0.049    298.35929    3.0583048 -0.0064495816  0.010014225 -0.023212393 -0.023377207          nan    423.26146    -36349.21   -10206.231
    4950       0.0495    296.43705    3.0888795 -0.019593929 -0.0075112768 -0.020483658 -0.018069099          nan    420.53453   -36344.473   -10205.914
    5000         0.05    296.24869    3.1049931 -0.00051003351  0.013532031 -0.023202028 -0.023363579          nan    420.26731   -36342.191   -10393.384
    5050       0.0505    301.19747    3.1665854   0.01055998  0.013646842 0.0077903549 -0.00031811403          nan     427.2878   -36347.167   -10635.974
    5100        0.051    300.36664    3.2018928 -0.0013603977 0.0060906372 -0.023179897 -0.023347182          nan    426.10915   -36343.923   -10688.744
    5150       0.0515    296.35707    3.1992424  0.019174205 -0.023048667 -0.028530482  0.017872587          nan    420.42105   -36336.166   -10651.226
    5200        0.052    298.03088    3.2386049 -0.011095926 -0.0004059146 -0.023171455 -0.023346256          nan    422.79557   -36336.458    -10757.01
    5250       0.0525    295.63884    3.2603888  0.008896756 -0.012412896 -0.044612716 0.00039549638          nan    419.40216   -36330.966   -10856.242
    5300        0.053     297.9879    3.2942996  0.013752869  0.017268137 -0.023157198 -0.023329695          nan    422.73461   -36332.182   -11084.402
    5350       0.0535    299.39113    3.3333944 -0.007592527 -0.0036147022  -0.02692263 -0.023156644          nan    424.72526   -36332.037   -11073.957
    5400        0.054    301.81217    3.3535193 0.0084538993  0.012795255 -0.023152191 -0.023328694          nan    428.15983   -36333.325   -11249.228
    5450       0.0545    294.80941    3.3716331  -0.02102651 0.00051164322 -0.013102368 -0.044726635          nan     418.2255    -36321.23   -11170.394
    5500        0.055    298.29115    3.4108366 -0.0049331355  0.023189698 -0.023130781 -0.023309535          nan    423.16481   -36323.998    -11430.31
    5550       0.0555    295.32909    3.4309085  0.016568227 -0.015094885   -0.0414185 -0.062643868          nan    418.96274   -36317.597   -11441.273
    5600        0.056    299.41595    3.4764885 -0.0090079251  0.013579554 -0.023113064 -0.023305047          nan    424.76047   -36321.183   -11603.534
    5650       0.0565    295.34393    3.4834379 -0.0023949946 -0.027619986 -0.030194157 0.0064377656          nan    418.98378    -36313.18    -11511.41
    5700        0.057    299.00442    3.5269569  0.011112821 0.0040437577 -0.023102228 -0.023280333          nan    424.17667   -36316.141   -11807.045
    5750       0.0575     299.7648    3.5803423  0.028464997  0.006429354 -0.038277515 -0.019678394          nan    425.25537   -36314.958   -12050.789
    5800        0.058    297.52696    3.5853053 -0.013737478  0.013780521 -0.023098827   -0.0232875          nan     422.0807   -36309.511   -11951.161
    5850       0.0585    297.50879     3.593385 -0.009323697 -0.010497894 -0.024653224  0.019388465          nan    422.05493   -36307.202   -11911.878
    5900        0.059    296.99933    3.6383118 -0.019032222 -0.0011855744 -0.023084527  -0.02327641          nan    421.33219   -36304.183   -12060.313
    5950       0.0595    299.60892    3.6797393  0.019143078  0.014852619 -0.021997236 -0.049294235          nan    425.03423   -36305.563   -12379.117
    6000         0.06    297.18613    3.7093636 0.0063282176  0.010842771   -0.0230609 -0.023259487          nan    421.59719     -36299.8   -12421.782
    6050       0.0605    300.29772    3.7448268 0.00022029877 -0.0022039738 0.0044709045 -0.030652452          nan    426.01139   -36301.861   -12476.144
    6100        0.061     299.2432    3.7461002 0.0036340829 -0.016209834  -0.02306043 -0.023249383          nan    424.51541   -36298.004   -12445.082
    6150       0.0615    296.19306    3.7916454 0.0049715517 -0.015280873  -0.02920721  0.026312628          nan    420.18839   -36291.299   -12604.453
    6200        0.062    296.79569    3.8283526  0.020307163  0.012547433 -0.023028036 -0.023224125          nan     421.0433   -36289.755   -12870.691
    6250       0.0625    298.07003     3.841558 0.0093420212  0.017237902 -0.013122598 -0.052096929          nan    422.85111   -36289.155   -12893.793
    6300        0.063    298.10581    3.8695959 -0.039731621 -0.0078151684 -0.023035578 -0.023242039          nan    422.90188   -36286.773   -12740.164
    6350       0.0635    301.18586     3.911105 0.0084236461 -0.010386186 -0.0080103764 -0.026307929          nan    427.27132   -36288.693   -13030.475
    6400        0.064    294.68418     3.927148 -0.0034582979  0.008628243 -0.023010151 -0.023210928          nan    418.04784   -36277.012   -13107.726
    6450       0.0645    298.60887    3.9841709  0.022422219  0.026823809 -0.0047153563 -0.010228249          nan    423.61553   -36280.105   -13444.723
    6500        0.065    298.86272    3.9968836 -0.010975402 0.0022414892 -0.023000752 -0.023212309          nan    423.97565   -36277.975   -13293.832
    6550       0.0655    299.05505    4.0111548 -0.022471218 -0.032780825 -0.028114354 -0.033423438          nan    424.24849    -36275.75   -13186.342
    6600        0.066    298.65098    4.0445651 -0.011055245  0.015051899 -0.022988192 -0.023191809          nan    423.67527   -36272.671   -13495.206
    6650       0.0665    298.44473    4.0995183  0.032340402  0.027500099  -0.03731617 -0.0077961898          nan    423.38268   -36269.837   -13864.529
    6700        0.067    299.84443    4.1094672  0.037559104  0.010855573 -0.022956938 -0.023161779          nan    425.36833   -36269.276   -13859.606
    6750       0.0675    298.40131    4.1248047 -0.0080944895 -0.025984498 -0.036952274 -0.025706539          nan    423.32107   -36264.663   -13635.753
    6800        0.068    294.17197    4.1529729 -0.030797402 -0.039870789 -0.022969865 -0.023190757          nan    417.32121   -36256.076   -13607.682
    6850       0.0685     299.1574    4.2120765 0.0096520149 0.0096164587 -0.052570591 -0.025974684          nan    424.39368   -36260.543   -14104.483
    6900        0.069    294.17103    4.2286445 -5.9522801e-05   0.02062037 -0.022930699 -0.023139352          nan    417.31988   -36250.852   -14164.018
    6950       0.0695    297.79567    4.2545975 -0.0091820407  0.017965325 -0.045807932 -0.046521721          nan     422.4619   -36253.376   -14211.269
    7000         0.07    297.07101    4.2507624 -0.025049385  -0.01326612  -0.02293546 -0.023157139          nan    421.43388   -36249.716    -14041.49
    7050       0.0705    299.42003    4.2983319 -0.0025943861 -0.0053098565  -0.04008973 -0.027320473          nan    424.76626   -36250.397   -14301.426
    7100        0.071    298.25112     4.340162  0.018785572  0.014540943 -0.022902102 -0.023126415          nan    423.10802   -36246.067   -14578.295
    7150       0.0715    298.08275    4.3902601  0.035048959 0.00043082646 -0.010253818 -0.022340702          nan    422.86916   -36243.137   -14752.466
    7200        0.072    298.15302    4.3991155 -0.0006771141 -0.010935819 -0.022903571 -0.023118217          nan    422.96885   -36240.524   -14625.008
    7250       0.0725     298.0227    4.4042846 -0.011838673 -0.010996227 -0.027914471 -0.0043816535          nan    422.78396   -36237.621   -14604.832
    7300        0.073    296.72214    4.4322069 -0.027441174 0.0032233293 -0.022885815 -0.023123398          nan    420.93896   -36233.048   -14693.297
    7350       0.0735     296.5838    4.4788716   0.01015657 0.0075485311  -0.03987665 -0.027513698          nan     420.7427   -36230.108   -14988.589
    7400        0.074    298.49271    4.5156409 0.0085485679  0.030227103 -0.022857843 -0.023085195          nan    423.45074   -36230.053   -15181.389
    7450       0.0745    300.31237    4.5374863 0.0045274814 -0.0015772168 -0.023327019 -0.035331553          nan    426.03216   -36229.854   -15134.789
    7500        0.075    296.07931    4.5446728 -0.014796947 -0.018823215 -0.022862368 -0.023100584          nan    420.02702   -36221.056   -15036.842
    7550       0.0755     299.2834    4.5816211  0.014441694 -0.0050637647 0.0067346692 -0.045891781          nan    424.57244   -36222.796    -15303.33
    7600        0.076    297.32719    4.6363802  0.031072213 -0.0050362977 -0.022824944 -0.023059502          nan     421.7973    -36217.19   -15541.387
    7650       0.0765    301.13479    4.6544414  0.022619252  0.025107887  0.023261616 -0.052961492          nan    427.19887   -36219.758   -15673.895
    7700        0.077    297.68266    4.6557195 -0.021631275 -0.024322098 -0.022841424  -0.02307922          nan    422.30158   -36212.008   -15365.887
    7750       0.0775    296.49553    4.6934354 -0.021487333 -0.014677457 -0.026092626 -0.064228438          nan    420.61748   -36207.461   -15524.235
    7800        0.078    296.13149    4.7268278  0.010973117  0.027427175 -0.022795024 -0.023038754          nan    420.10104   -36204.061   -15884.094
    7850       0.0785    298.04541    4.7663119  0.013686913  0.030983936 -0.020421727 -0.026574894          nan    422.81619   -36203.882   -16036.609
    7900        0.079    295.71834    4.7700328 -0.040024844 -0.0011211596 -0.022800862 -0.023049178          nan    419.51494   -36197.682   -15762.956
    7950       0.0795     297.9721    4.8067567 -0.019399842 -0.026272286 -0.030670068 -0.017255999          nan    422.71219   -36197.952   -15870.282
    8000         0.08    297.67802    4.8473001  0.014554803 0.0062880328 -0.022775053 -0.023022572          nan      422.295   -36194.588   -16227.143
    8050       0.0805    300.44981    4.8858752  0.035332178   0.01862499 -0.027165371 -0.038609976          nan    426.22714   -36195.554   -16466.108
    8100        0.081    297.78997     4.895581  0.022047999 -0.005782552  -0.02275547  -0.02299852          nan    422.45381   -36188.808   -16372.821
    8150       0.0815    295.95143    4.9139557 -0.012483585 -0.026065437  -0.06680142 -0.049177119          nan    419.84561   -36183.206   -16251.356
    8200        0.082    297.24418    4.9455188 -0.0012467329 -0.015718461 -0.022747006 -0.022997053          nan    421.67954   -36182.033   -16428.512
    8250       0.0825    295.05386    4.9789031  0.023045953 0.0033255601 -0.011971239 -0.041414339          nan    418.57228   -36175.904   -16684.249
    8300        0.083     299.0375    5.0146566 0.0039888276  0.013547681 -0.022723133 -0.022988789          nan     424.2236   -36178.523   -16773.977
    8350       0.0835    298.10133    5.0268017 -0.011425886 -0.0087161594 -0.040284718 -0.036556365          nan    422.89551   -36174.144   -16688.865
    8400        0.084    301.21096    5.0705825 -0.009081507  0.022887009 -0.022722506 -0.022986483          nan    427.30693   -36175.487    -16947.96
    8450       0.0845    296.38721    5.0879581 -0.006058234 0.0018310632 -0.024565397  -0.03716264          nan    420.46381   -36165.565    -16945.77
    8500        0.085    298.80145    5.1399865  0.013097593  0.035375649 -0.022683758 -0.022958873          nan    423.88872   -36165.891   -17294.866
    8550       0.0855    298.33259    5.1653577 -0.010448164   0.02263098 -0.033147187 -0.0030943269          nan    423.22359   -36162.109   -17258.468
    8600        0.086    296.34672    5.1575836 -0.010541074 -0.039376757 -0.022696423 -0.022969703          nan    420.40638   -36156.165   -17025.552
    8650       0.0865     296.5173    5.1983831 -0.00079674462 -0.013295846  -0.02837625 -0.031500566          nan    420.64836   -36153.264   -17280.968
    8700        0.087    295.51824    5.2376536  0.016328115  0.011037415 -0.022654475 -0.022936224          nan    419.23106   -36148.689   -17550.064
    8750       0.0875    300.57606    5.2770472  0.019585011  0.018628193 -0.041376352 -0.035672924          nan    426.40624   -36152.693   -17717.535
    8800        0.088    292.65635    5.2758938  -0.01292053 -0.034613488  -0.02265339 -0.022939773          nan     415.1711   -36138.269   -17427.866
    8850       0.0885    298.71329    5.3221651 0.0039414662 -0.0058887653 -0.041423188 -0.0030855839          nan    423.76367   -36143.654   -17734.059
    8900        0.089    297.72251    5.3476637  0.011259257  0.024697759 -0.022627353 -0.022915196          nan    422.35812   -36139.023   -17945.402
    8950       0.0895    296.76603    5.3731924 0.0020628863  -0.00537538 -0.011682718 -0.026125011          nan    421.00122   -36134.437     -17899.6
    9000         0.09    298.16135    5.4028624 -0.013567585 -0.011862291 -0.022618071 -0.022903957          nan    422.98067   -36133.165   -17924.775
    9050       0.0905      293.483    5.4104049 -0.0070699621 0.0070414117 -0.017423558 -0.016752365          nan    416.34381    -36123.26   -18034.588
    9100        0.091    300.56406    5.4627832  0.022878171  0.011956125 -0.022595919 -0.022887194          nan    426.38923   -36130.028   -18325.392
    9150       0.0915    297.07721    5.4878456 -0.021536699   0.01074816 -0.027278394 -0.050423283          nan    421.44267   -36121.782   -18256.857
    9200        0.092    296.96906    5.4945755 -0.0056974353 -0.0044916754 -0.022589201 -0.022882093          nan    421.28925   -36118.323   -18281.288
    9250       0.0925    296.90734      5.52073 -0.0043934404 -0.0044285204 0.0092870028  0.013692911          nan    421.20168    -36114.92   -18373.027
    9300        0.093     296.7219    5.5606361 0.0057871292  0.010490076 -0.022555072 -0.022854956          nan    420.93861   -36111.324   -18589.711
    9350       0.0935     295.5975    5.5793839  0.030164153 0.0054592479 -0.020257842 0.00074554291          nan    419.34351   -36106.386   -18716.691
    9400        0.094    299.39265    5.6071989 -0.010764057 0.0017075802 -0.022554486 -0.022856217          nan    424.72742   -36108.407   -18660.475
    9450       0.0945    297.91407    5.6329032 -0.017330728 -0.004957387 -0.028314752 -0.032557365          nan    422.62986   -36102.924    -18702.05
    9500        0.095    297.45794     5.668388 0.0059971538 0.0091751569 -0.022523279 -0.022835612          nan    421.98279   -36098.876   -18945.201
    9550       0.0955     295.6955    5.6996605 0.0096840385  0.010223213 -0.015276717 -0.032104163          nan    419.48253   -36092.967   -19065.226
    9600        0.096      298.014    5.7349377  0.023095993 -0.0035304117 -0.022509903 -0.022816676          nan    422.77163   -36092.818   -19181.677
    9650       0.0965    295.52051    5.7538032 -0.0095694854 -0.022804014 -0.030874766  -0.02134993          nan    419.23429   -36085.823   -19071.432
    9700        0.097     296.2627    5.7662136 -0.010880236 0.00026694701 -0.022504129 -0.022818837          nan    420.28719   -36083.413   -19185.334
    9750       0.0975    298.74485    5.8075191  0.014133858 -0.0041873413 -0.0041608145 -0.051333503          nan    423.80844   -36083.464   -19391.552
    9800        0.098    294.92899    5.8204341 0.0027134946  0.010459432  -0.02247155  -0.02278779          nan    418.39514   -36074.563   -19445.357
    9850       0.0985    297.89092    5.8593474 0.00078563344 0.0050395706 -0.033739766  0.012439745          nan    422.59702   -36075.256   -19550.575
    9900        0.099    296.65324    5.8769259 -0.010379503 0.0023810337 -0.022459458 -0.022777562          nan    420.84122   -36069.982   -19563.091
    9950       0.0995    294.56909    5.8887083 -0.0063945335 -0.015148434 -0.010830392 0.0043516304          nan    417.88458   -36063.489   -19557.218
   10000          0.1    298.84984    5.9429971  0.011499666  0.016492969 -0.022438428 -0.022761358          nan    423.95737   -36066.008   -19903.299
   10050       0.1005    296.74129    5.9642409 0.0010234599 -0.0052498866 -0.021634857 -0.026874316          nan    420.96613   -36059.452   -19866.715
   10100        0.101    294.73676    5.9789749 -0.0096212216 -0.018001569 -0.022425081 -0.022755302          nan    418.12244   -36053.035    -19837.84
   10150       0.1015    297.45051    6.0182766  0.027735049  0.003285638 -0.0084989527 -0.037758632          nan    421.97224   -36053.297   -20164.324
   10200        0.102    296.82443    6.0417878  0.015831794  0.012625355 -0.022405125 -0.022741159          nan    421.08406   -36048.813    -20234.15
   10250       0.1025    296.29081    6.0543561 -0.011570311  -0.01391634 -0.029153972 -0.025986075          nan    420.32706   -36044.434   -20096.231
   10300        0.103    295.02156    6.0741519 -0.031244428 -0.013801883 -0.022393151 -0.022740073          nan    418.52646   -36039.008   -20097.019
   10350       0.1035     297.2304    6.1240605 0.0069577356  0.043252161  0.015711661 -0.027488697          nan    421.65999   -36038.492   -20580.901
   10400        0.104    294.56929    6.1253548 0.0028668886   0.01016637 -0.022364982 -0.022707164          nan    417.88486   -36031.065   -20461.293
   10450       0.1045    298.83952    6.1787687 -0.0077623412  0.016719834 -0.035670029 -0.034706297          nan    423.94274   -36033.454   -20625.754
   10500        0.105    296.60643    6.1803138 0.0023150856 -0.014439089 -0.022364827 -0.022701348          nan     420.7748   -36026.591   -20560.633
   10550       0.1055    292.61218    6.1918186 -0.0051833681  -0.03246266 -0.0077589311 -0.0095227241          nan    415.10845   -36017.231   -20513.909
   10600        0.106    294.80396    6.2461875 0.0076239748 0.0035472572 -0.022327462 -0.022676272          nan    418.21778   -36016.618   -20857.862
   10650       0.1065    295.10649    6.2851616   0.01063983 0.0071158411 -0.010099777  0.015644034          nan    418.64694   -36013.307   -21009.724
   10700        0.107    297.29372    6.3144249  0.020938951 -0.0035628538 -0.022310567 -0.022659754          nan    421.74981   -36012.655   -21106.003
   10750       0.1075    298.37564    6.3318137 0.0038929953 -0.0095404168 -0.025791715 -0.019661189          nan    423.28465   -36010.423   -21087.221
   10800        0.108    297.63976    6.3543959 -0.0033914052 -0.0045268459 -0.022306822 -0.022657437          nan    422.24071   -36005.596   -21154.926
   10850       0.1085    296.55122    6.3819047 -0.00060154501  0.011904935  -0.03680227  0.015596632          nan    420.69649   -36000.261   -21310.694
   10900        0.109    295.02606    6.3972389 0.0034426556  0.020389185 -0.022273539 -0.022627254          nan    418.53284   -35994.293   -21403.569
   10950       0.1095    294.68947    6.4226832 -0.0054906111 0.0054445398 -0.0038434301 -0.011999848          nan    418.05535   -35989.999    -21408.79
   11000         0.11    295.10985     6.445433 -0.010663938 -0.0040645353 -0.022262095 -0.022623206          nan    418.65171    -35986.76   -21435.682
   11050       0.1105    299.34444    6.4970394 0.00019311931  0.022196519 -0.042523427 -0.035809861          nan    424.65903   -35988.897    -21731.43
   11100        0.111    293.62905    6.4833183 -0.0054543624 -0.022573896 -0.022248304 -0.022606425          nan    416.55101   -35976.925   -21517.633
   11150       0.1115    294.72086    6.5092443 -0.0067169552 -0.0053817306  -0.01581928 -0.011990904          nan    418.09988   -35974.605   -21657.152
   11200        0.112    293.34287    6.5488977 0.0032269398  0.021896181  -0.02220928 -0.022577343          nan    416.14503   -35968.757   -21913.403
   11250       0.1125    297.21117    6.5873028  0.022373606     0.018272  -0.02317203 -0.020545147          nan    421.63271   -35970.331   -22093.161
   11300        0.113    297.25012    6.6199558 0.0065620009 -0.0057825791 -0.022200854  -0.02258213          nan    421.68797   -35966.445   -22069.118
   11350       0.1135    296.68564    6.5960497 -0.029044108 -0.026878897 -0.012197024 -0.039939217          nan    420.88717   -35961.697   -21800.422
   11400        0.114     293.0997    6.6351013 -0.0023067672 -0.020242673 -0.022180951 -0.022551675          nan    415.80006   -35952.673    -22041.84
   11450       0.1145    295.60788    6.7023434  0.031029062  0.032103674 -0.033380357 -0.044792834          nan    419.35824   -35952.251   -22551.587
   11500        0.115    293.97931    6.7219892  0.011680149  0.015234535 -0.022147459 -0.022536036          nan    417.04789   -35945.955   -22496.346
   11550       0.1155    294.84262    6.7131653 -0.011928578 -0.051031983   0.01664467 -0.035959479          nan    418.27262   -35943.174   -22167.349
   11600        0.116    295.47762    6.7246779 -0.041604667 -0.0080537553 -0.022147876 -0.022549149          nan    419.17345   -35940.078   -22250.065
   11650       0.1165    293.82094    6.7720521 -0.012021596  0.028952007  -0.01196577 -0.0088592435          nan    416.82323   -35933.722   -22629.942
   11700        0.117    294.12952    6.8194248  0.034335279  0.043585624 -0.022093879 -0.022480795          nan    417.26099   -35930.114   -22991.152
   11750       0.1175    296.77278    6.8323284  0.022966657 0.0053725365  -0.01474254 -0.069073185          nan    421.01079   -35929.819   -22868.892
   11800        0.118    296.77426    6.8374115 -0.021949371 -0.033895689 -0.022109274 -0.022516766          nan     421.0129   -35925.737   -22605.221
   11850       0.1185    294.47457    6.8581755 -0.017423527 -0.027967665 0.0021086212 -0.045643806          nan    417.75048   -35918.403   -22709.281
   11900        0.119    295.30141     6.904173   0.03113639  0.028814251 -0.022064999 -0.022454083          nan    418.92347    -35915.48   -23213.746
   11950       0.1195    293.45084    6.9264274   0.03699014  0.020750313 -0.029459782 -0.0080780507          nan    416.29819   -35908.738   -23280.559
   12000         0.12    293.05894    6.9210322 -0.015006142 0.0044806629 -0.022064966 -0.022459074          nan    415.74223   -35904.064   -23035.022
   12050       0.1205    294.38945    6.9612239 -0.019721656 -0.033001342 -0.028189716 -0.052806634          nan    417.62974   -35901.792   -23028.336
   12100        0.121    297.06322    7.0047929 -0.0065413007 -0.011396056 -0.022043235 -0.022457111          nan    421.42283   -35901.423   -23289.518
   12150       0.1215    295.72813    7.0422328  0.037780674  0.016623983 -0.042629916  0.017968779          nan    419.52883   -35895.366   -23655.458
   12200        0.122    295.41954    7.0503319  0.030117293 0.0093068016 -0.022011035 -0.022424964          nan    419.09105   -35890.743    -23632.52
   12250       0.1225    294.71123     7.079734 -0.0098559561 -0.029438497 -0.0064017147 -0.024817581          nan    418.08622   -35885.548   -23468.132
   12300        0.123    293.37415    7.0912975 -0.017893479 -0.015962061 -0.022009492 -0.022426887          nan     416.1894    -35879.45   -23524.807
   12350       0.1235    297.39586    7.1490246 0.00033061283  0.035255662 -0.043286022 -0.028122135          nan    421.89471   -35880.925   -23948.703
   12400        0.124     293.3957    7.1603095 0.0096962486  0.032607411 -0.021962899 -0.022396962          nan    416.21997   -35871.005   -24008.711
   12450       0.1245    292.67256    7.1596862 -0.019596859  0.016237484 -0.038478027 -0.014433389          nan    415.19409   -35865.739   -23854.423
   12500        0.125    289.83246    7.1660656 -0.053391874 -0.025811347 -0.021964406 -0.022395584          nan    411.16505   -35857.461   -23622.875
   12550       0.1255    295.90345    7.2189775  0.012003247 -0.0014484606 -0.0084496436 -0.020190635          nan    419.77753   -35861.797   -24098.441
   12600        0.126    293.87493     7.248452  0.027045442  0.029059452 -0.021917651 -0.022347799          nan    416.89982   -35854.628   -24348.523
   12650       0.1265    294.93761    7.2588468 0.0083043164 0.0012072056 -0.035778451 0.0048321045          nan    418.40737   -35851.849   -24227.861
   12700        0.127     292.9702    7.2532066 -0.026200687 -0.026934204 -0.021922614 -0.022357051          nan    415.61634    -35844.75   -24000.239
   12750       0.1275    295.05166    7.3174845 -0.0023369739 -0.011477789 -0.020101323 -0.0051140941          nan    418.56917   -35843.382   -24345.566
   12800        0.128    292.57639    7.3309997  0.025531656   0.01052919 -0.021871007 -0.022305776          nan    415.05767   -35835.529   -24556.869
   12850       0.1285    291.18078    7.3213087  0.013734246 0.0058122305 -0.038735093  -0.01677732          nan    413.07782   -35829.215   -24469.517
   12900        0.129    292.78145    7.3323242  0.019430385 -0.024301903 -0.021865733 -0.022299515          nan    415.34857   -35827.141   -24424.842
   12950       0.1295    293.52596    7.3523218  -0.02477059 -0.018245683 -0.019806631 -0.013834032          nan    416.40475   -35823.838   -24364.352
   13000         0.13    294.17339     7.384443  0.011475258 -0.012184028 -0.021846031 -0.022283126          nan    417.32322    -35820.39   -24612.447
   13050       0.1305    291.89889    7.4155398  0.010015806  0.020514687 -0.0096371002 -0.039376657          nan    414.09655    -35812.77   -24820.234
   13100        0.131    291.14608    7.4134054 -0.00081829764  0.022246691 -0.021813309 -0.022262123          nan     413.0286   -35807.304   -24782.779
   13150       0.1315     293.0299    7.4329712 -0.026622495 -0.028844971   -0.0456488 -0.0032027468          nan    415.70104   -35805.563   -24591.679
   13200        0.132    293.20254    7.4883142 -0.021417962 0.0072317423 -0.021795863 -0.022257728          nan    415.94594   -35801.373    -24913.76
   13250       0.1325    291.45755    7.5216162  0.023238902  0.016867005 0.0078139429 -0.0065086879          nan    413.47045    -35794.44    -25205.74
   13300        0.133    293.87438    7.5475587  0.010558357  0.018779014 -0.021759784 -0.022221034          nan    416.89904   -35793.395    -25256.32
   13350       0.1335      293.919    7.5505265 -0.014308858 0.0050280982 -0.027924972  0.014418541          nan    416.96233   -35788.979   -25137.486
   13400        0.134    290.63213     7.551328 -0.011372407 -0.044247817 -0.021759267 -0.022216468          nan    412.29949   -35779.826   -24985.693
   13450       0.1345    291.43084    7.5960824 0.0097177975  0.010990943 -0.0031347057 -0.033689206          nan    413.43255   -35776.453   -25389.304
   13500        0.135    291.94533    7.6075429  0.024449443  0.020789773 -0.021724319 -0.022183568          nan    414.16244   -35772.669   -25509.274
   13550       0.1355    291.87179    7.6233598 -0.0077623362 -0.022758579 -0.0038671634 0.0093862492          nan     414.0581   -35768.051   -25309.463
   13600        0.136    291.27745    7.6504689 -0.0051808176 -0.040161141 -0.021712176 -0.022181785          nan    413.21496   -35762.664   -25350.423
   13650       0.1365    291.11731    7.6708723 0.0064508674 0.0042288062  -0.01945621  0.010726269          nan    412.98778   -35757.899   -25605.173
   13700        0.137    293.15761    7.7119891  0.010560087  0.032581176 -0.021662079 -0.022143888          nan     415.8822   -35756.231   -25850.434
   13750       0.1375    291.80845    7.7415205 -0.014163074  0.014454641 -0.0002812256 0.0038155311          nan    413.96825    -35749.74    -25806.04
   13800        0.138    296.30988    7.7264835 -0.0027485387 0.0014745999 -0.021664219  -0.02214374          nan    420.35411    -35751.54   -25750.699
   13850       0.1385       288.96    7.6998112 -0.034259768 -0.027161205 -0.046839816 -0.044960402          nan    409.92735   -35736.542   -25461.301
   13900        0.139    293.85696    7.7812373  0.035025019  0.033328983  -0.02161218 -0.022096138          nan    416.87432   -35738.891   -26165.304
   13950       0.1395    289.89032    7.7814708  0.023370264  0.035296534 -0.043434856 -0.028082693          nan    411.24713   -35728.648   -26133.792
   14000         0.14    289.97753    7.7489252 -0.018827889 -0.011569022 -0.021619725 -0.022108609          nan    411.37085   -35724.164   -25728.428
   14050       0.1405    289.98138    7.7846782 -0.041597514 -0.044381697 -0.033859718 -0.013656772          nan    411.37631    -35719.53    -25662.33
   14100        0.141    295.03898    7.8491131  0.017537104 0.0018052168 -0.021576053 -0.022073389          nan    418.55117   -35722.062   -26228.185
   14150       0.1415    289.83869    7.8484485   0.02580111  0.024830215 -0.053104862  0.024175015          nan    411.17389   -35710.016   -26330.266
   14200        0.142    287.48236    7.8108341 0.0085789913  0.010934354 -0.021550259  -0.02202605          nan    407.83112   -35702.023   -26101.158
   14250       0.1425    288.99463    7.8412594 -0.0067648427 -0.012278153 -0.020828849 -0.0061078017          nan    409.97648   -35699.511   -26074.055
   14300        0.143    292.33699    7.8939512 -0.013743638 -0.014108475 -0.021543182 -0.022037332          nan    414.71806   -35699.554    -26220.33
   14350       0.1435    290.77098     7.910269 -0.0070699886 -0.00059011484 -0.021990449 -0.020717644          nan    412.49647   -35692.626    -26342.03
   14400        0.144    290.48838    7.9195567  0.028659963  0.010205896 -0.021503672 -0.021993415          nan    412.09556   -35687.517   -26528.075
   14450       0.1445    291.70634    7.9319108  0.022068791 0.0095060177 -0.027068543 -0.014937731          nan    413.82339   -35684.536   -26544.952
   14500        0.145     290.3184    7.9384843 -0.018436775 -0.0032479938 -0.021492961 -0.021985968          nan    411.85442   -35677.838   -26389.332
   14550       0.1455     289.9328    7.9352757 -0.015114984 -0.012575446 -0.012779553  0.015047787          nan    411.30739   -35672.567   -26358.618
   14600        0.146    291.72175    7.9901279 0.0050393041  0.028825262 -0.021455897 -0.021959973          nan    413.84526   -35670.363   -26746.642
   14650       0.1465    290.11336    8.0253642  0.014348781  0.047754679  -0.03383809 -0.024213238          nan    411.56354   -35663.309   -26958.225
   14700        0.147    288.79943    8.0297227  0.010749372 -0.011207202  -0.02143138 -0.021943031          nan    409.69956   -35656.672   -26764.216
   14750       0.1475    290.26495    8.0182761 -0.00074894018 -0.034965089 -0.010219554 -0.014524965          nan    411.77859   -35653.958    -26608.54
   14800        0.148    289.62924    7.9982341 -0.013213696  -0.03457433 -0.021419597 -0.021938119          nan    410.87675   -35648.292   -26501.487
   14850       0.1485    286.96169    8.0185381  0.011143968  0.021288624 -0.037263153 -0.037510001          nan    407.09249    -35639.74   -26836.569
   14900        0.149    288.98118    8.0558972  0.057960849  0.049637762  -0.02135682 -0.021867161          nan     409.9574   -35637.804   -27211.653
   14950       0.1495    289.01778    7.9996903 -0.014742261 -0.0039228924 -0.023092358 -0.024018247          nan    410.00932   -35633.085   -26603.417
   15000         0.15    286.62174    7.9692228 -0.082468419 -0.040347847 -0.021387281  -0.02190798          nan    406.61023   -35624.891   -26154.689
   15050       0.1505    292.46993    8.0166851 0.0033424006  0.012080427 -0.057559097 0.00074201713          nan    414.90664   -35628.411   -26773.693
   15100        0.151    287.89803    7.9844486  0.053813876  0.037807227 -0.021314522 -0.021815811          nan     408.4208   -35617.137   -26920.232
   15150       0.1515    290.38834    7.9629307  0.022582597  0.028063389 0.0024728421 -0.039781396          nan    411.95364   -35615.915   -26711.922
   15200        0.152    294.28424    7.8321697 -0.026459244 -0.0055005615 -0.021342633 -0.021850446          nan    417.48048   -35616.731     -26000.7
   15250       0.1525    290.47009    7.7014074 -0.082931084  -0.03448637 -0.036380052  0.021422051          nan    412.06961   -35606.676   -25279.966
   15300        0.153     296.6385    7.6319036  0.050008002  0.023540494 -0.021281826 -0.021770263          nan     420.8203   -35610.867    -25684.84
   15350       0.1535    299.41614    7.4387776  0.064281831  0.050601561 -0.019007266 -0.00022081743          nan    424.76074   -35610.332    -25178.87
   15400        0.154    301.29052    7.1592265 -0.017327003 -0.0064242405 -0.021279986 -0.021760923          nan     427.4198   -35608.713   -23784.918
   15450       0.1545    308.72795    6.9173589 -0.051089066 -0.029140471 -0.028808667 -0.045405583          nan    437.97076   -35615.146   -22790.431
   15500        0.155    319.92192    6.6649972 0.0026873248   0.01730906 -0.021278672 -0.021734886          nan    453.85087   -35627.159   -22283.312
   15550       0.1555    322.06963    6.3248071  0.010005928  0.032679379  -0.02329119 -0.050715912          nan    456.89767   -35626.628   -21224.975
   15600        0.156    328.55422    5.9077002  0.027397498  0.005701724 -0.021263396 -0.021690671          nan    466.09691   -35632.644   -19802.665
   15650       0.1565     340.8582    5.5442611  0.021091368  0.005564779 -0.033105892 -0.060363983          nan     483.5517   -35647.318   -18569.724
   15700        0.157    346.27958    5.0842955 -0.031775185  0.023820014 -0.021313757 -0.021716917          nan    491.24263   -35652.705   -16921.135
   15750       0.1575    355.18296     4.635059  0.025094704 -0.0039712163 -0.026252778  0.022865535          nan    503.87324   -35663.569   -15520.608
   15800        0.158    361.10523    4.1971544  0.017246741  0.020451469 -0.021369583 -0.021731806          nan    512.27475   -35670.744   -14116.176
   15850       0.1585    369.55096    3.7466142   0.02074527  0.038331722 -0.027988219 -0.030471406          nan    524.25612    -35682.06   -12685.637
   15900        0.159     375.5655    3.3742521 -0.021095012  0.059274151 -0.021487492 -0.021806113          nan    532.78852   -35690.376   -11374.771
   15950       0.1595    379.04177    3.0432665 -0.014446619 -0.021673653 -0.023298173 -0.0084002355          nan    537.72006   -35695.371   -10023.821
   16000         0.16    379.92678    2.8276468  0.010064476 -0.041742038 -0.021611816 -0.021889626          nan    538.97556   -35696.778   -9319.8974
   16050       0.1605    387.54055     2.629365 0.0053976331 -0.005522166 -0.031314779 -0.026178136          nan    549.77669   -35707.895   -8764.1349
   16100        0.161    386.68562    2.4122732  0.039903063   0.05222917 -0.021668264 -0.021898261          nan    548.56386   -35707.132   -8348.0181
   16150       0.1615    389.44281    2.2004563  0.026635087  0.070211302 -0.032496369 -0.0029384758          nan    552.47529   -35711.714   -7657.6755
   16200        0.162    390.16052    1.9870604  -0.01937689  0.019113238 -0.021818846 -0.022009635          nan    553.49345   -35713.576   -6622.6559
   16250       0.1625    394.06034    1.8625449 -0.013048892 -0.068258688  0.013222293 -0.042594837          nan    559.02586   -35720.043   -5937.4577
   16300        0.163     397.9926    1.8009305 -0.0021458278 -0.027445366 -0.021887647 -0.022074309          nan    564.60428    -35726.73   -5904.4643
   16350       0.1635    401.40609    1.7957831  0.013860253  0.033540539 0.0091622999 0.0017583385          nan    569.44676   -35732.836   -6143.9463
   16400        0.164    399.58754    1.7638636  0.011513189   0.05053043 -0.021883928 -0.022060133          nan    566.86691   -35731.643   -6086.3573
   16450       0.1645    405.36139     1.723638 -0.0034006896  0.035872435 0.0041621635 -0.035145054          nan    575.05787   -35741.296   -5853.6991
   16500        0.165     398.0605    1.6686895 -0.020190414 -0.017259672  -0.02196204 -0.022116348          nan     564.7006   -35732.428   -5437.4647
   16550       0.1655    406.51705    1.7426292 -0.008646618 -0.0024595852  0.012927761 0.0056167737          nan    576.69732   -35745.959   -5771.7433
   16600        0.166    405.32867     1.730211  0.013699956 -0.0003380409 -0.021967167 -0.022127992          nan    575.01144   -35745.843   -5811.9098
   16650       0.1665    406.59924    1.7183125    0.0420151 0.0065652145 -0.045166279 -0.0032373935          nan    576.81392   -35749.278   -5889.6428
   16700        0.167    407.51475    1.6777445  0.041000754 -0.034329629  -0.02201176 -0.022145778          nan    578.11269   -35752.262   -5614.7186
   16750       0.1675    407.82254    1.6354209  0.014368307 -0.029455367 -0.021966123  -0.06350812          nan    578.54933    -35754.43   -5401.1128
   16800        0.168    403.83679    1.5675996 -0.028416259 0.0098043631 -0.022040411 -0.022177254          nan    572.89502   -35750.554   -5163.2925
   16850       0.1685    412.57274    1.5842888 0.0067690676   0.01401804 -0.0097740948 -0.068674721          nan     585.2881   -35764.753   -5350.2531
   16900        0.169    406.63033    1.5628295 -0.018169853  0.051586882 -0.022047638 -0.022203262          nan    576.85803    -35758.15   -5320.8218
   16950       0.1695    409.86583    1.5422848 -0.00080168736  0.016815172 -0.047554358 -0.031473889          nan    581.44801   -35764.622   -5194.3276
   17000         0.17    413.08292    1.4859646 0.0057949976  0.019213777 -0.022101173 -0.022238045          nan    586.01186   -35771.107   -5036.5778
   17050       0.1705    406.19138    1.4508524 -0.014719966 -0.039549717 0.0034215185  0.012404192          nan    576.23532   -35763.234   -4655.2757
   17100        0.171    413.86931    1.4770525  0.015324763  0.041949202 -0.022098669 -0.022246354          nan    587.12745   -35776.077   -5114.4214
   17150       0.1715    412.50221    1.4690727 -0.067223309   0.05927853   -0.0393197 -0.021684461          nan    585.18805   -35776.152   -4870.4263
   17200        0.172    411.38542    1.4585425   -0.0402102  0.034977637 -0.022105657 -0.022255038          nan    583.60374   -35776.665   -4844.3666
   17250       0.1725    411.14693    1.3940659 -0.0068661703 0.0073449551 -0.0025656891  0.027939157          nan     583.2654   -35778.413   -4648.4824
   17300        0.173    411.27109    1.3577092  0.071411831 0.0044979415 -0.022108994 -0.022245029          nan    583.44155    -35780.59   -4778.7299
   17350       0.1735    409.24467    1.3283691  0.021427888 0.00078017032 -0.061729397 0.0053056777          nan     580.5668    -35779.78   -4501.9238
   17400        0.174    407.79077    1.2902152 -0.019359244 -0.033973845 -0.022166025 -0.022291648          nan    578.50426   -35779.733   -4122.9403
   17450       0.1745    409.64402    1.2880231   0.02784765 -0.019019509 -0.052001315  0.011784461          nan    581.13333   -35784.431   -4322.8374
   17500        0.175    408.54452    1.3171809 0.0080497279 -0.00073097733 -0.022170425 -0.022290987          nan    579.57355   -35784.929   -4414.9989
   17550       0.1755     411.0385    1.3251673   0.03833705  0.013007667 -0.003548464  0.016270725          nan    583.11159    -35790.56   -4588.3734
   17600        0.176    404.61257    1.3204611  0.018842217 -0.070001359 -0.022179504 -0.022305044          nan    573.99556   -35783.533   -4231.0067
   17650       0.1765     410.7671    1.3272333  0.045537407 -0.031600715 -0.002123369 -0.018912681          nan    582.72657    -35794.36   -4470.5666
   17700        0.177    410.77912    1.2984699 0.0050552697   0.01886508 -0.022175407 -0.022307984          nan    582.74362   -35796.494   -4407.9674
   17750       0.1775    405.87036    1.2809837 -0.051061548  0.060217982 -0.029761392 -0.052860905          nan     575.7799   -35791.571   -4300.4669
   17800        0.178    410.09707    1.2650152 -0.013359407  0.068870941 -0.022199597 -0.022326928          nan    581.77604   -35799.636   -4401.7559
   17850       0.1785    406.27031    1.2220397 -0.078646859  0.014455914 -0.029691902 -0.044510771          nan    576.34728   -35796.322    -3859.496
   17900        0.179    412.48993    1.2166644 0.0077532856 0.0019136803 -0.022221303 -0.022328027          nan    585.17063   -35807.268   -4087.7714
   17950       0.1795    404.77749    1.2472991  0.056447597 -0.018268344 -0.053585793 -0.0087621524          nan    574.22953   -35798.385   -4284.9279
   18000         0.18    404.59168    1.2683907 0.0045549183 -0.015451653 -0.022201433 -0.022334472          nan    573.96593   -35800.184   -4191.6465
   18050       0.1805    406.24532    1.2785388 -0.019264735    0.0195639 -0.029821416 -0.026984873          nan    576.31183   -35804.553   -4262.7933
   18100        0.181    401.89463    1.3194536 -0.006541122 0.0022045589 -0.022203146 -0.022333406          nan    570.13982   -35800.421   -4383.7235
   18150       0.1815    404.14414    1.2998056 -0.011477391  0.042437356 -0.033044788 -0.022138055          nan    573.33104     -35805.6   -4435.8852
   18200        0.182    402.69466     1.304922 -0.0082823506 -0.016952631 -0.022209651 -0.022344721          nan    571.27477   -35805.558   -4265.6232
   18250       0.1825    404.66663    1.2871054 -0.0047798632 -0.0021487542 -0.059723467 0.0084884501          nan    574.07226   -35810.335   -4267.2558
   18300        0.183    404.58946    1.2923382  0.012759673 0.00025999061 -0.022212054 -0.022332899          nan    573.96279   -35812.233    -4351.193
   18350       0.1835    403.44418    1.2525263  0.014775288 -0.0035062623 -0.043584799 -0.031622133          nan    572.33806   -35812.604   -4212.6512
   18400        0.184    404.68895    1.2837895  -0.03612358  0.029918596 -0.022213682 -0.022355831          nan    574.10393   -35816.376   -4258.6151
   18450       0.1845     403.0725    1.2671802 0.0032072494  0.017435908 0.0070901345 -0.040346142          nan    571.81078   -35816.078   -4292.7445
   18500        0.185    404.69095    1.2529339  0.015144581 -0.013482451 -0.022231462 -0.022352667          nan    574.10677   -35820.385   -4181.9867
   18550       0.1855    401.99799    1.2339585  0.041586476 -0.029730402 -0.041538332 -0.055704777          nan    570.28644   -35818.544   -4152.7152
   18600        0.186    400.82536    1.2703028 0.0055480561 -0.039046025 -0.022237574 -0.022354766          nan    568.62291   -35818.852   -4122.6828
   18650       0.1865     402.2406    1.3418276 -0.0059898593 -0.0094712951  0.018616319 -0.0094848157          nan    570.63062   -35822.771   -4421.2214
   18700        0.187    398.75275    1.3671674  0.016542326  0.059735802 -0.022210707 -0.022328664          nan    565.68265   -35819.695    -4811.485
   18750       0.1875    403.43544    1.3421725 0.0091452405  0.057807971 -0.022515802 -0.013766216          nan    572.32566   -35828.255   -4697.0856
   18800        0.188    399.69444    1.2887816  -0.06009271 -0.027013274 -0.022252817 -0.022381756          nan    567.01857   -35824.825   -4005.5855
   18850       0.1885    404.30493    1.2994755 -0.017934796 -0.032438439 -0.038073463 -0.029108679          nan    573.55915   -35833.254   -4163.6744
   18900        0.189    393.39198    1.2819174  0.016664238  0.038376275 -0.022219709 -0.022348236          nan    558.07771   -35819.684   -4456.5263
   18950       0.1895    400.18654    1.3486323  0.041089674  0.025774137 -0.0080791514 -0.021894525          nan    567.71667   -35831.197   -4718.3204
   19000         0.19    397.88018    1.3380786 -0.0024057504 -0.0065765941 -0.022238671 -0.022377597          nan     564.4448   -35829.759   -4430.3207
   19050       0.1905    395.72265    1.2608355  0.033726215 -0.076005524 -0.011645103 -0.011446756          nan    561.38405   -35828.523   -4061.8541
   19100        0.191    395.84596    1.3014359 -0.020275048 0.0054240521 -0.022253421 -0.022374491          nan    561.55899   -35830.531   -4288.6163
   19150       0.1915    399.14672    1.2925455  0.017427547  0.062836666   0.02750157 -0.061764997          nan    566.24154   -35837.029   -4576.0325
   19200        0.192    400.52984     1.306795 -0.018733426  0.037956805  -0.02226165  -0.02239054          nan    568.20368   -35840.839   -4420.0611
   19250       0.1925    396.51276    1.3183496 -0.037382034  -0.04583756 -0.024186801 -0.028285466          nan    562.50494    -35836.96   -4117.1002
   19300        0.193    394.27349    1.3503012 0.0064326352 -0.020853792 -0.022246624 -0.022367629          nan    559.32823   -35835.576   -4452.9333
   19350       0.1935    392.57904    1.3727875  0.068722683   0.04101264 -0.013264284 -0.014184511          nan    556.92444   -35834.898   -4941.7429
   19400        0.194    394.18691    1.3814851  0.070259378 -0.016144152 -0.022243692 -0.022372329          nan    559.20541   -35838.954   -4785.3344
   19450       0.1945    397.82924    1.3256543 -0.043462659 -0.043144624 -0.018202886 -0.016021721          nan    564.37253   -35845.888   -4130.1568
   19500        0.195    391.95499    1.2864335 -0.047492329 -0.020975516 -0.022303423 -0.022412286          nan    556.03915   -35839.297   -4059.8855
   19550       0.1955    394.98576    1.3571342  0.002894658  0.022816038 -0.045208366 -0.035197317          nan    560.33869   -35845.319   -4609.4829
   19600        0.196    388.71922    1.3657999  0.034857979  0.054085438 -0.022239608  -0.02235767          nan    551.44878   -35838.123   -4849.1444
   19650       0.1965    391.48875    1.3591392 0.0010046413   0.02211426 -0.052777433 -0.0083130858          nan    555.37773   -35843.742   -4607.5272
   19700        0.197    388.63259    1.3483387 -0.0036523267 -0.060029417 -0.022278243 -0.022402376          nan    551.32588   -35841.348   -4282.1898
   19750       0.1975    389.20137    1.3823025  -0.02686557  0.013266564 -0.013647045 -0.033646242          nan    552.13278   -35843.774   -4562.3451
   19800        0.198    393.53346    1.3897544  0.032311664 0.0084938129 -0.022250094 -0.022388673          nan     558.2784   -35851.548   -4768.5328
   19850       0.1985    383.94661    1.3787722 -0.013984136 -0.022041509 -0.037507515 -0.045609881          nan    544.67822   -35839.571   -4475.8219
   19900        0.199    383.94404    1.3643796 0.0080654404 0.0023176823 -0.022243933 -0.022372973          nan    544.67457   -35841.164   -4582.5425
   19950       0.1995    390.89761    1.3717939  0.047137796  0.022691103 -0.024022866  0.024155023          nan    554.53911   -35852.622   -4805.4094
   20000          0.2    385.31393    1.3706464 -0.015604183 -0.033765673 -0.022269477 -0.022400791          nan    546.61793   -35846.284   -4404.2551
Loop time of 2893.6 on 4 procs for 20000 steps with 10976 atoms

Pair  time (%) = 2688 (92.8949)
Neigh time (%) = 1.69389 (0.0585394)
Comm  time (%) = 109.949 (3.79973)
Outpt time (%) = 0.480678 (0.0166118)
Other time (%) = 93.4681 (3.23017)

######################################
# SIMULATION DONE
print "All done"
All done
